# TDIS6 File Generated by iMOD [V5_4 X64 Optimized]

#General Options

BEGIN OPTIONS
 TIME_UNITS DAYS
 START_DATE_TIME 1994-1-1T00:00:00TZD+01:00
END OPTIONS

#Time Dimensions

BEGIN DIMENSIONS
 NPER 1095
END DIMENSIONS

#Stress periods

BEGIN PERIODDATA
 1.000000,1,1.000000 
 1.000000,1,1.000000 
 1.000000,1,1.000000 
 1.000000,1,1.000000 
 1.000000,1,1.000000 
 1.000000,1,1.000000 
 1.000000,1,1.000000 
 1.000000,1,1.000000 
 1.000000,1,1.000000 
 1.000000,1,1.000000 
 1.000000,1,1.000000 
 1.000000,1,1.000000 
 1.000000,1,1.000000 
 1.000000,1,1.000000 
 1.000000,1,1.000000 
 1.000000,1,1.000000 
 1.000000,1,1.000000 
 1.000000,1,1.000000 
 1.000000,1,1.000000 
 1.000000,1,1.000000 
 1.000000,1,1.000000 
 1.000000,1,1.000000 
 1.000000,1,1.000000 
 1.000000,1,1.000000 
 1.000000,1,1.000000 
 1.000000,1,1.000000 
 1.000000,1,1.000000 
 1.000000,1,1.000000 
 1.000000,1,1.000000 
 1.000000,1,1.000000 
 1.000000,1,1.000000 
 1.000000,1,1.000000 
 1.000000,1,1.000000 
 1.000000,1,1.000000 
 1.000000,1,1.000000 
 1.000000,1,1.000000 
 1.000000,1,1.000000 
 1.000000,1,1.000000 
 1.000000,1,1.000000 
 1.000000,1,1.000000 
 1.000000,1,1.000000 
 1.000000,1,1.000000 
 1.000000,1,1.000000 
 1.000000,1,1.000000 
 1.000000,1,1.000000 
 1.000000,1,1.000000 
 1.000000,1,1.000000 
 1.000000,1,1.000000 
 1.000000,1,1.000000 
 1.000000,1,1.000000 
 1.000000,1,1.000000 
 1.000000,1,1.000000 
 1.000000,1,1.000000 
 1.000000,1,1.000000 
 1.000000,1,1.000000 
 1.000000,1,1.000000 
 1.000000,1,1.000000 
 1.000000,1,1.000000 
 1.000000,1,1.000000 
 1.000000,1,1.000000 
 1.000000,1,1.000000 
 1.000000,1,1.000000 
 1.000000,1,1.000000 
 1.000000,1,1.000000 
 1.000000,1,1.000000 
 1.000000,1,1.000000 
 1.000000,1,1.000000 
 1.000000,1,1.000000 
 1.000000,1,1.000000 
 1.000000,1,1.000000 
 1.000000,1,1.000000 
 1.000000,1,1.000000 
 1.000000,1,1.000000 
 1.000000,1,1.000000 
 1.000000,1,1.000000 
 1.000000,1,1.000000 
 1.000000,1,1.000000 
 1.000000,1,1.000000 
 1.000000,1,1.000000 
 1.000000,1,1.000000 
 1.000000,1,1.000000 
 1.000000,1,1.000000 
 1.000000,1,1.000000 
 1.000000,1,1.000000 
 1.000000,1,1.000000 
 1.000000,1,1.000000 
 1.000000,1,1.000000 
 1.000000,1,1.000000 
 1.000000,1,1.000000 
 1.000000,1,1.000000 
 1.000000,1,1.000000 
 1.000000,1,1.000000 
 1.000000,1,1.000000 
 1.000000,1,1.000000 
 1.000000,1,1.000000 
 1.000000,1,1.000000 
 1.000000,1,1.000000 
 1.000000,1,1.000000 
 1.000000,1,1.000000 
 1.000000,1,1.000000 
 1.000000,1,1.000000 
 1.000000,1,1.000000 
 1.000000,1,1.000000 
 1.000000,1,1.000000 
 1.000000,1,1.000000 
 1.000000,1,1.000000 
 1.000000,1,1.000000 
 1.000000,1,1.000000 
 1.000000,1,1.000000 
 1.000000,1,1.000000 
 1.000000,1,1.000000 
 1.000000,1,1.000000 
 1.000000,1,1.000000 
 1.000000,1,1.000000 
 1.000000,1,1.000000 
 1.000000,1,1.000000 
 1.000000,1,1.000000 
 1.000000,1,1.000000 
 1.000000,1,1.000000 
 1.000000,1,1.000000 
 1.000000,1,1.000000 
 1.000000,1,1.000000 
 1.000000,1,1.000000 
 1.000000,1,1.000000 
 1.000000,1,1.000000 
 1.000000,1,1.000000 
 1.000000,1,1.000000 
 1.000000,1,1.000000 
 1.000000,1,1.000000 
 1.000000,1,1.000000 
 1.000000,1,1.000000 
 1.000000,1,1.000000 
 1.000000,1,1.000000 
 1.000000,1,1.000000 
 1.000000,1,1.000000 
 1.000000,1,1.000000 
 1.000000,1,1.000000 
 1.000000,1,1.000000 
 1.000000,1,1.000000 
 1.000000,1,1.000000 
 1.000000,1,1.000000 
 1.000000,1,1.000000 
 1.000000,1,1.000000 
 1.000000,1,1.000000 
 1.000000,1,1.000000 
 1.000000,1,1.000000 
 1.000000,1,1.000000 
 1.000000,1,1.000000 
 1.000000,1,1.000000 
 1.000000,1,1.000000 
 1.000000,1,1.000000 
 1.000000,1,1.000000 
 1.000000,1,1.000000 
 1.000000,1,1.000000 
 1.000000,1,1.000000 
 1.000000,1,1.000000 
 1.000000,1,1.000000 
 1.000000,1,1.000000 
 1.000000,1,1.000000 
 1.000000,1,1.000000 
 1.000000,1,1.000000 
 1.000000,1,1.000000 
 1.000000,1,1.000000 
 1.000000,1,1.000000 
 1.000000,1,1.000000 
 1.000000,1,1.000000 
 1.000000,1,1.000000 
 1.000000,1,1.000000 
 1.000000,1,1.000000 
 1.000000,1,1.000000 
 1.000000,1,1.000000 
 1.000000,1,1.000000 
 1.000000,1,1.000000 
 1.000000,1,1.000000 
 1.000000,1,1.000000 
 1.000000,1,1.000000 
 1.000000,1,1.000000 
 1.000000,1,1.000000 
 1.000000,1,1.000000 
 1.000000,1,1.000000 
 1.000000,1,1.000000 
 1.000000,1,1.000000 
 1.000000,1,1.000000 
 1.000000,1,1.000000 
 1.000000,1,1.000000 
 1.000000,1,1.000000 
 1.000000,1,1.000000 
 1.000000,1,1.000000 
 1.000000,1,1.000000 
 1.000000,1,1.000000 
 1.000000,1,1.000000 
 1.000000,1,1.000000 
 1.000000,1,1.000000 
 1.000000,1,1.000000 
 1.000000,1,1.000000 
 1.000000,1,1.000000 
 1.000000,1,1.000000 
 1.000000,1,1.000000 
 1.000000,1,1.000000 
 1.000000,1,1.000000 
 1.000000,1,1.000000 
 1.000000,1,1.000000 
 1.000000,1,1.000000 
 1.000000,1,1.000000 
 1.000000,1,1.000000 
 1.000000,1,1.000000 
 1.000000,1,1.000000 
 1.000000,1,1.000000 
 1.000000,1,1.000000 
 1.000000,1,1.000000 
 1.000000,1,1.000000 
 1.000000,1,1.000000 
 1.000000,1,1.000000 
 1.000000,1,1.000000 
 1.000000,1,1.000000 
 1.000000,1,1.000000 
 1.000000,1,1.000000 
 1.000000,1,1.000000 
 1.000000,1,1.000000 
 1.000000,1,1.000000 
 1.000000,1,1.000000 
 1.000000,1,1.000000 
 1.000000,1,1.000000 
 1.000000,1,1.000000 
 1.000000,1,1.000000 
 1.000000,1,1.000000 
 1.000000,1,1.000000 
 1.000000,1,1.000000 
 1.000000,1,1.000000 
 1.000000,1,1.000000 
 1.000000,1,1.000000 
 1.000000,1,1.000000 
 1.000000,1,1.000000 
 1.000000,1,1.000000 
 1.000000,1,1.000000 
 1.000000,1,1.000000 
 1.000000,1,1.000000 
 1.000000,1,1.000000 
 1.000000,1,1.000000 
 1.000000,1,1.000000 
 1.000000,1,1.000000 
 1.000000,1,1.000000 
 1.000000,1,1.000000 
 1.000000,1,1.000000 
 1.000000,1,1.000000 
 1.000000,1,1.000000 
 1.000000,1,1.000000 
 1.000000,1,1.000000 
 1.000000,1,1.000000 
 1.000000,1,1.000000 
 1.000000,1,1.000000 
 1.000000,1,1.000000 
 1.000000,1,1.000000 
 1.000000,1,1.000000 
 1.000000,1,1.000000 
 1.000000,1,1.000000 
 1.000000,1,1.000000 
 1.000000,1,1.000000 
 1.000000,1,1.000000 
 1.000000,1,1.000000 
 1.000000,1,1.000000 
 1.000000,1,1.000000 
 1.000000,1,1.000000 
 1.000000,1,1.000000 
 1.000000,1,1.000000 
 1.000000,1,1.000000 
 1.000000,1,1.000000 
 1.000000,1,1.000000 
 1.000000,1,1.000000 
 1.000000,1,1.000000 
 1.000000,1,1.000000 
 1.000000,1,1.000000 
 1.000000,1,1.000000 
 1.000000,1,1.000000 
 1.000000,1,1.000000 
 1.000000,1,1.000000 
 1.000000,1,1.000000 
 1.000000,1,1.000000 
 1.000000,1,1.000000 
 1.000000,1,1.000000 
 1.000000,1,1.000000 
 1.000000,1,1.000000 
 1.000000,1,1.000000 
 1.000000,1,1.000000 
 1.000000,1,1.000000 
 1.000000,1,1.000000 
 1.000000,1,1.000000 
 1.000000,1,1.000000 
 1.000000,1,1.000000 
 1.000000,1,1.000000 
 1.000000,1,1.000000 
 1.000000,1,1.000000 
 1.000000,1,1.000000 
 1.000000,1,1.000000 
 1.000000,1,1.000000 
 1.000000,1,1.000000 
 1.000000,1,1.000000 
 1.000000,1,1.000000 
 1.000000,1,1.000000 
 1.000000,1,1.000000 
 1.000000,1,1.000000 
 1.000000,1,1.000000 
 1.000000,1,1.000000 
 1.000000,1,1.000000 
 1.000000,1,1.000000 
 1.000000,1,1.000000 
 1.000000,1,1.000000 
 1.000000,1,1.000000 
 1.000000,1,1.000000 
 1.000000,1,1.000000 
 1.000000,1,1.000000 
 1.000000,1,1.000000 
 1.000000,1,1.000000 
 1.000000,1,1.000000 
 1.000000,1,1.000000 
 1.000000,1,1.000000 
 1.000000,1,1.000000 
 1.000000,1,1.000000 
 1.000000,1,1.000000 
 1.000000,1,1.000000 
 1.000000,1,1.000000 
 1.000000,1,1.000000 
 1.000000,1,1.000000 
 1.000000,1,1.000000 
 1.000000,1,1.000000 
 1.000000,1,1.000000 
 1.000000,1,1.000000 
 1.000000,1,1.000000 
 1.000000,1,1.000000 
 1.000000,1,1.000000 
 1.000000,1,1.000000 
 1.000000,1,1.000000 
 1.000000,1,1.000000 
 1.000000,1,1.000000 
 1.000000,1,1.000000 
 1.000000,1,1.000000 
 1.000000,1,1.000000 
 1.000000,1,1.000000 
 1.000000,1,1.000000 
 1.000000,1,1.000000 
 1.000000,1,1.000000 
 1.000000,1,1.000000 
 1.000000,1,1.000000 
 1.000000,1,1.000000 
 1.000000,1,1.000000 
 1.000000,1,1.000000 
 1.000000,1,1.000000 
 1.000000,1,1.000000 
 1.000000,1,1.000000 
 1.000000,1,1.000000 
 1.000000,1,1.000000 
 1.000000,1,1.000000 
 1.000000,1,1.000000 
 1.000000,1,1.000000 
 1.000000,1,1.000000 
 1.000000,1,1.000000 
 1.000000,1,1.000000 
 1.000000,1,1.000000 
 1.000000,1,1.000000 
 1.000000,1,1.000000 
 1.000000,1,1.000000 
 1.000000,1,1.000000 
 1.000000,1,1.000000 
 1.000000,1,1.000000 
 1.000000,1,1.000000 
 1.000000,1,1.000000 
 1.000000,1,1.000000 
 1.000000,1,1.000000 
 1.000000,1,1.000000 
 1.000000,1,1.000000 
 1.000000,1,1.000000 
 1.000000,1,1.000000 
 1.000000,1,1.000000 
 1.000000,1,1.000000 
 1.000000,1,1.000000 
 1.000000,1,1.000000 
 1.000000,1,1.000000 
 1.000000,1,1.000000 
 1.000000,1,1.000000 
 1.000000,1,1.000000 
 1.000000,1,1.000000 
 1.000000,1,1.000000 
 1.000000,1,1.000000 
 1.000000,1,1.000000 
 1.000000,1,1.000000 
 1.000000,1,1.000000 
 1.000000,1,1.000000 
 1.000000,1,1.000000 
 1.000000,1,1.000000 
 1.000000,1,1.000000 
 1.000000,1,1.000000 
 1.000000,1,1.000000 
 1.000000,1,1.000000 
 1.000000,1,1.000000 
 1.000000,1,1.000000 
 1.000000,1,1.000000 
 1.000000,1,1.000000 
 1.000000,1,1.000000 
 1.000000,1,1.000000 
 1.000000,1,1.000000 
 1.000000,1,1.000000 
 1.000000,1,1.000000 
 1.000000,1,1.000000 
 1.000000,1,1.000000 
 1.000000,1,1.000000 
 1.000000,1,1.000000 
 1.000000,1,1.000000 
 1.000000,1,1.000000 
 1.000000,1,1.000000 
 1.000000,1,1.000000 
 1.000000,1,1.000000 
 1.000000,1,1.000000 
 1.000000,1,1.000000 
 1.000000,1,1.000000 
 1.000000,1,1.000000 
 1.000000,1,1.000000 
 1.000000,1,1.000000 
 1.000000,1,1.000000 
 1.000000,1,1.000000 
 1.000000,1,1.000000 
 1.000000,1,1.000000 
 1.000000,1,1.000000 
 1.000000,1,1.000000 
 1.000000,1,1.000000 
 1.000000,1,1.000000 
 1.000000,1,1.000000 
 1.000000,1,1.000000 
 1.000000,1,1.000000 
 1.000000,1,1.000000 
 1.000000,1,1.000000 
 1.000000,1,1.000000 
 1.000000,1,1.000000 
 1.000000,1,1.000000 
 1.000000,1,1.000000 
 1.000000,1,1.000000 
 1.000000,1,1.000000 
 1.000000,1,1.000000 
 1.000000,1,1.000000 
 1.000000,1,1.000000 
 1.000000,1,1.000000 
 1.000000,1,1.000000 
 1.000000,1,1.000000 
 1.000000,1,1.000000 
 1.000000,1,1.000000 
 1.000000,1,1.000000 
 1.000000,1,1.000000 
 1.000000,1,1.000000 
 1.000000,1,1.000000 
 1.000000,1,1.000000 
 1.000000,1,1.000000 
 1.000000,1,1.000000 
 1.000000,1,1.000000 
 1.000000,1,1.000000 
 1.000000,1,1.000000 
 1.000000,1,1.000000 
 1.000000,1,1.000000 
 1.000000,1,1.000000 
 1.000000,1,1.000000 
 1.000000,1,1.000000 
 1.000000,1,1.000000 
 1.000000,1,1.000000 
 1.000000,1,1.000000 
 1.000000,1,1.000000 
 1.000000,1,1.000000 
 1.000000,1,1.000000 
 1.000000,1,1.000000 
 1.000000,1,1.000000 
 1.000000,1,1.000000 
 1.000000,1,1.000000 
 1.000000,1,1.000000 
 1.000000,1,1.000000 
 1.000000,1,1.000000 
 1.000000,1,1.000000 
 1.000000,1,1.000000 
 1.000000,1,1.000000 
 1.000000,1,1.000000 
 1.000000,1,1.000000 
 1.000000,1,1.000000 
 1.000000,1,1.000000 
 1.000000,1,1.000000 
 1.000000,1,1.000000 
 1.000000,1,1.000000 
 1.000000,1,1.000000 
 1.000000,1,1.000000 
 1.000000,1,1.000000 
 1.000000,1,1.000000 
 1.000000,1,1.000000 
 1.000000,1,1.000000 
 1.000000,1,1.000000 
 1.000000,1,1.000000 
 1.000000,1,1.000000 
 1.000000,1,1.000000 
 1.000000,1,1.000000 
 1.000000,1,1.000000 
 1.000000,1,1.000000 
 1.000000,1,1.000000 
 1.000000,1,1.000000 
 1.000000,1,1.000000 
 1.000000,1,1.000000 
 1.000000,1,1.000000 
 1.000000,1,1.000000 
 1.000000,1,1.000000 
 1.000000,1,1.000000 
 1.000000,1,1.000000 
 1.000000,1,1.000000 
 1.000000,1,1.000000 
 1.000000,1,1.000000 
 1.000000,1,1.000000 
 1.000000,1,1.000000 
 1.000000,1,1.000000 
 1.000000,1,1.000000 
 1.000000,1,1.000000 
 1.000000,1,1.000000 
 1.000000,1,1.000000 
 1.000000,1,1.000000 
 1.000000,1,1.000000 
 1.000000,1,1.000000 
 1.000000,1,1.000000 
 1.000000,1,1.000000 
 1.000000,1,1.000000 
 1.000000,1,1.000000 
 1.000000,1,1.000000 
 1.000000,1,1.000000 
 1.000000,1,1.000000 
 1.000000,1,1.000000 
 1.000000,1,1.000000 
 1.000000,1,1.000000 
 1.000000,1,1.000000 
 1.000000,1,1.000000 
 1.000000,1,1.000000 
 1.000000,1,1.000000 
 1.000000,1,1.000000 
 1.000000,1,1.000000 
 1.000000,1,1.000000 
 1.000000,1,1.000000 
 1.000000,1,1.000000 
 1.000000,1,1.000000 
 1.000000,1,1.000000 
 1.000000,1,1.000000 
 1.000000,1,1.000000 
 1.000000,1,1.000000 
 1.000000,1,1.000000 
 1.000000,1,1.000000 
 1.000000,1,1.000000 
 1.000000,1,1.000000 
 1.000000,1,1.000000 
 1.000000,1,1.000000 
 1.000000,1,1.000000 
 1.000000,1,1.000000 
 1.000000,1,1.000000 
 1.000000,1,1.000000 
 1.000000,1,1.000000 
 1.000000,1,1.000000 
 1.000000,1,1.000000 
 1.000000,1,1.000000 
 1.000000,1,1.000000 
 1.000000,1,1.000000 
 1.000000,1,1.000000 
 1.000000,1,1.000000 
 1.000000,1,1.000000 
 1.000000,1,1.000000 
 1.000000,1,1.000000 
 1.000000,1,1.000000 
 1.000000,1,1.000000 
 1.000000,1,1.000000 
 1.000000,1,1.000000 
 1.000000,1,1.000000 
 1.000000,1,1.000000 
 1.000000,1,1.000000 
 1.000000,1,1.000000 
 1.000000,1,1.000000 
 1.000000,1,1.000000 
 1.000000,1,1.000000 
 1.000000,1,1.000000 
 1.000000,1,1.000000 
 1.000000,1,1.000000 
 1.000000,1,1.000000 
 1.000000,1,1.000000 
 1.000000,1,1.000000 
 1.000000,1,1.000000 
 1.000000,1,1.000000 
 1.000000,1,1.000000 
 1.000000,1,1.000000 
 1.000000,1,1.000000 
 1.000000,1,1.000000 
 1.000000,1,1.000000 
 1.000000,1,1.000000 
 1.000000,1,1.000000 
 1.000000,1,1.000000 
 1.000000,1,1.000000 
 1.000000,1,1.000000 
 1.000000,1,1.000000 
 1.000000,1,1.000000 
 1.000000,1,1.000000 
 1.000000,1,1.000000 
 1.000000,1,1.000000 
 1.000000,1,1.000000 
 1.000000,1,1.000000 
 1.000000,1,1.000000 
 1.000000,1,1.000000 
 1.000000,1,1.000000 
 1.000000,1,1.000000 
 1.000000,1,1.000000 
 1.000000,1,1.000000 
 1.000000,1,1.000000 
 1.000000,1,1.000000 
 1.000000,1,1.000000 
 1.000000,1,1.000000 
 1.000000,1,1.000000 
 1.000000,1,1.000000 
 1.000000,1,1.000000 
 1.000000,1,1.000000 
 1.000000,1,1.000000 
 1.000000,1,1.000000 
 1.000000,1,1.000000 
 1.000000,1,1.000000 
 1.000000,1,1.000000 
 1.000000,1,1.000000 
 1.000000,1,1.000000 
 1.000000,1,1.000000 
 1.000000,1,1.000000 
 1.000000,1,1.000000 
 1.000000,1,1.000000 
 1.000000,1,1.000000 
 1.000000,1,1.000000 
 1.000000,1,1.000000 
 1.000000,1,1.000000 
 1.000000,1,1.000000 
 1.000000,1,1.000000 
 1.000000,1,1.000000 
 1.000000,1,1.000000 
 1.000000,1,1.000000 
 1.000000,1,1.000000 
 1.000000,1,1.000000 
 1.000000,1,1.000000 
 1.000000,1,1.000000 
 1.000000,1,1.000000 
 1.000000,1,1.000000 
 1.000000,1,1.000000 
 1.000000,1,1.000000 
 1.000000,1,1.000000 
 1.000000,1,1.000000 
 1.000000,1,1.000000 
 1.000000,1,1.000000 
 1.000000,1,1.000000 
 1.000000,1,1.000000 
 1.000000,1,1.000000 
 1.000000,1,1.000000 
 1.000000,1,1.000000 
 1.000000,1,1.000000 
 1.000000,1,1.000000 
 1.000000,1,1.000000 
 1.000000,1,1.000000 
 1.000000,1,1.000000 
 1.000000,1,1.000000 
 1.000000,1,1.000000 
 1.000000,1,1.000000 
 1.000000,1,1.000000 
 1.000000,1,1.000000 
 1.000000,1,1.000000 
 1.000000,1,1.000000 
 1.000000,1,1.000000 
 1.000000,1,1.000000 
 1.000000,1,1.000000 
 1.000000,1,1.000000 
 1.000000,1,1.000000 
 1.000000,1,1.000000 
 1.000000,1,1.000000 
 1.000000,1,1.000000 
 1.000000,1,1.000000 
 1.000000,1,1.000000 
 1.000000,1,1.000000 
 1.000000,1,1.000000 
 1.000000,1,1.000000 
 1.000000,1,1.000000 
 1.000000,1,1.000000 
 1.000000,1,1.000000 
 1.000000,1,1.000000 
 1.000000,1,1.000000 
 1.000000,1,1.000000 
 1.000000,1,1.000000 
 1.000000,1,1.000000 
 1.000000,1,1.000000 
 1.000000,1,1.000000 
 1.000000,1,1.000000 
 1.000000,1,1.000000 
 1.000000,1,1.000000 
 1.000000,1,1.000000 
 1.000000,1,1.000000 
 1.000000,1,1.000000 
 1.000000,1,1.000000 
 1.000000,1,1.000000 
 1.000000,1,1.000000 
 1.000000,1,1.000000 
 1.000000,1,1.000000 
 1.000000,1,1.000000 
 1.000000,1,1.000000 
 1.000000,1,1.000000 
 1.000000,1,1.000000 
 1.000000,1,1.000000 
 1.000000,1,1.000000 
 1.000000,1,1.000000 
 1.000000,1,1.000000 
 1.000000,1,1.000000 
 1.000000,1,1.000000 
 1.000000,1,1.000000 
 1.000000,1,1.000000 
 1.000000,1,1.000000 
 1.000000,1,1.000000 
 1.000000,1,1.000000 
 1.000000,1,1.000000 
 1.000000,1,1.000000 
 1.000000,1,1.000000 
 1.000000,1,1.000000 
 1.000000,1,1.000000 
 1.000000,1,1.000000 
 1.000000,1,1.000000 
 1.000000,1,1.000000 
 1.000000,1,1.000000 
 1.000000,1,1.000000 
 1.000000,1,1.000000 
 1.000000,1,1.000000 
 1.000000,1,1.000000 
 1.000000,1,1.000000 
 1.000000,1,1.000000 
 1.000000,1,1.000000 
 1.000000,1,1.000000 
 1.000000,1,1.000000 
 1.000000,1,1.000000 
 1.000000,1,1.000000 
  1.000000,1,1.000000
  1.000000,1,1.000000
  1.000000,1,1.000000
  1.000000,1,1.000000
  1.000000,1,1.000000
  1.000000,1,1.000000
  1.000000,1,1.000000
  1.000000,1,1.000000
  1.000000,1,1.000000
  1.000000,1,1.000000
  1.000000,1,1.000000
  1.000000,1,1.000000
  1.000000,1,1.000000
  1.000000,1,1.000000
  1.000000,1,1.000000
  1.000000,1,1.000000
  1.000000,1,1.000000
  1.000000,1,1.000000
  1.000000,1,1.000000
  1.000000,1,1.000000
  1.000000,1,1.000000
  1.000000,1,1.000000
  1.000000,1,1.000000
  1.000000,1,1.000000
  1.000000,1,1.000000
  1.000000,1,1.000000
  1.000000,1,1.000000
  1.000000,1,1.000000
  1.000000,1,1.000000
  1.000000,1,1.000000
  1.000000,1,1.000000
  1.000000,1,1.000000
  1.000000,1,1.000000
  1.000000,1,1.000000
  1.000000,1,1.000000
  1.000000,1,1.000000
  1.000000,1,1.000000
  1.000000,1,1.000000
  1.000000,1,1.000000
  1.000000,1,1.000000
  1.000000,1,1.000000
  1.000000,1,1.000000
  1.000000,1,1.000000
  1.000000,1,1.000000
  1.000000,1,1.000000
  1.000000,1,1.000000
  1.000000,1,1.000000
  1.000000,1,1.000000
  1.000000,1,1.000000
  1.000000,1,1.000000
  1.000000,1,1.000000
  1.000000,1,1.000000
  1.000000,1,1.000000
  1.000000,1,1.000000
  1.000000,1,1.000000
  1.000000,1,1.000000
  1.000000,1,1.000000
  1.000000,1,1.000000
  1.000000,1,1.000000
  1.000000,1,1.000000
  1.000000,1,1.000000
  1.000000,1,1.000000
  1.000000,1,1.000000
  1.000000,1,1.000000
  1.000000,1,1.000000
  1.000000,1,1.000000
  1.000000,1,1.000000
  1.000000,1,1.000000
  1.000000,1,1.000000
  1.000000,1,1.000000
  1.000000,1,1.000000
  1.000000,1,1.000000
  1.000000,1,1.000000
  1.000000,1,1.000000
  1.000000,1,1.000000
  1.000000,1,1.000000
  1.000000,1,1.000000
  1.000000,1,1.000000
  1.000000,1,1.000000
  1.000000,1,1.000000
  1.000000,1,1.000000
  1.000000,1,1.000000
  1.000000,1,1.000000
  1.000000,1,1.000000
  1.000000,1,1.000000
  1.000000,1,1.000000
  1.000000,1,1.000000
  1.000000,1,1.000000
  1.000000,1,1.000000
  1.000000,1,1.000000
  1.000000,1,1.000000
  1.000000,1,1.000000
  1.000000,1,1.000000
  1.000000,1,1.000000
  1.000000,1,1.000000
  1.000000,1,1.000000
  1.000000,1,1.000000
  1.000000,1,1.000000
  1.000000,1,1.000000
  1.000000,1,1.000000
  1.000000,1,1.000000
  1.000000,1,1.000000
  1.000000,1,1.000000
  1.000000,1,1.000000
  1.000000,1,1.000000
  1.000000,1,1.000000
  1.000000,1,1.000000
  1.000000,1,1.000000
  1.000000,1,1.000000
  1.000000,1,1.000000
  1.000000,1,1.000000
  1.000000,1,1.000000
  1.000000,1,1.000000
  1.000000,1,1.000000
  1.000000,1,1.000000
  1.000000,1,1.000000
  1.000000,1,1.000000
  1.000000,1,1.000000
  1.000000,1,1.000000
  1.000000,1,1.000000
  1.000000,1,1.000000
  1.000000,1,1.000000
  1.000000,1,1.000000
  1.000000,1,1.000000
  1.000000,1,1.000000
  1.000000,1,1.000000
  1.000000,1,1.000000
  1.000000,1,1.000000
  1.000000,1,1.000000
  1.000000,1,1.000000
  1.000000,1,1.000000
  1.000000,1,1.000000
  1.000000,1,1.000000
  1.000000,1,1.000000
  1.000000,1,1.000000
  1.000000,1,1.000000
  1.000000,1,1.000000
  1.000000,1,1.000000
  1.000000,1,1.000000
  1.000000,1,1.000000
  1.000000,1,1.000000
  1.000000,1,1.000000
  1.000000,1,1.000000
  1.000000,1,1.000000
  1.000000,1,1.000000
  1.000000,1,1.000000
  1.000000,1,1.000000
  1.000000,1,1.000000
  1.000000,1,1.000000
  1.000000,1,1.000000
  1.000000,1,1.000000
  1.000000,1,1.000000
  1.000000,1,1.000000
  1.000000,1,1.000000
  1.000000,1,1.000000
  1.000000,1,1.000000
  1.000000,1,1.000000
  1.000000,1,1.000000
  1.000000,1,1.000000
  1.000000,1,1.000000
  1.000000,1,1.000000
  1.000000,1,1.000000
  1.000000,1,1.000000
  1.000000,1,1.000000
  1.000000,1,1.000000
  1.000000,1,1.000000
  1.000000,1,1.000000
  1.000000,1,1.000000
  1.000000,1,1.000000
  1.000000,1,1.000000
  1.000000,1,1.000000
  1.000000,1,1.000000
  1.000000,1,1.000000
  1.000000,1,1.000000
  1.000000,1,1.000000
  1.000000,1,1.000000
  1.000000,1,1.000000
  1.000000,1,1.000000
  1.000000,1,1.000000
  1.000000,1,1.000000
  1.000000,1,1.000000
  1.000000,1,1.000000
  1.000000,1,1.000000
  1.000000,1,1.000000
  1.000000,1,1.000000
  1.000000,1,1.000000
  1.000000,1,1.000000
  1.000000,1,1.000000
  1.000000,1,1.000000
  1.000000,1,1.000000
  1.000000,1,1.000000
  1.000000,1,1.000000
  1.000000,1,1.000000
  1.000000,1,1.000000
  1.000000,1,1.000000
  1.000000,1,1.000000
  1.000000,1,1.000000
  1.000000,1,1.000000
  1.000000,1,1.000000
  1.000000,1,1.000000
  1.000000,1,1.000000
  1.000000,1,1.000000
  1.000000,1,1.000000
  1.000000,1,1.000000
  1.000000,1,1.000000
  1.000000,1,1.000000
  1.000000,1,1.000000
  1.000000,1,1.000000
  1.000000,1,1.000000
  1.000000,1,1.000000
  1.000000,1,1.000000
  1.000000,1,1.000000
  1.000000,1,1.000000
  1.000000,1,1.000000
  1.000000,1,1.000000
  1.000000,1,1.000000
  1.000000,1,1.000000
  1.000000,1,1.000000
  1.000000,1,1.000000
  1.000000,1,1.000000
  1.000000,1,1.000000
  1.000000,1,1.000000
  1.000000,1,1.000000
  1.000000,1,1.000000
  1.000000,1,1.000000
  1.000000,1,1.000000
  1.000000,1,1.000000
  1.000000,1,1.000000
  1.000000,1,1.000000
  1.000000,1,1.000000
  1.000000,1,1.000000
  1.000000,1,1.000000
  1.000000,1,1.000000
  1.000000,1,1.000000
  1.000000,1,1.000000
  1.000000,1,1.000000
  1.000000,1,1.000000
  1.000000,1,1.000000
  1.000000,1,1.000000
  1.000000,1,1.000000
  1.000000,1,1.000000
  1.000000,1,1.000000
  1.000000,1,1.000000
  1.000000,1,1.000000
  1.000000,1,1.000000
  1.000000,1,1.000000
  1.000000,1,1.000000
  1.000000,1,1.000000
  1.000000,1,1.000000
  1.000000,1,1.000000
  1.000000,1,1.000000
  1.000000,1,1.000000
  1.000000,1,1.000000
  1.000000,1,1.000000
  1.000000,1,1.000000
  1.000000,1,1.000000
  1.000000,1,1.000000
  1.000000,1,1.000000
  1.000000,1,1.000000
  1.000000,1,1.000000
  1.000000,1,1.000000
  1.000000,1,1.000000
  1.000000,1,1.000000
  1.000000,1,1.000000
  1.000000,1,1.000000
  1.000000,1,1.000000
  1.000000,1,1.000000
  1.000000,1,1.000000
  1.000000,1,1.000000
  1.000000,1,1.000000
  1.000000,1,1.000000
  1.000000,1,1.000000
  1.000000,1,1.000000
  1.000000,1,1.000000
  1.000000,1,1.000000
  1.000000,1,1.000000
  1.000000,1,1.000000
  1.000000,1,1.000000
  1.000000,1,1.000000
  1.000000,1,1.000000
  1.000000,1,1.000000
  1.000000,1,1.000000
  1.000000,1,1.000000
  1.000000,1,1.000000
  1.000000,1,1.000000
  1.000000,1,1.000000
  1.000000,1,1.000000
  1.000000,1,1.000000
  1.000000,1,1.000000
  1.000000,1,1.000000
  1.000000,1,1.000000
  1.000000,1,1.000000
  1.000000,1,1.000000
  1.000000,1,1.000000
  1.000000,1,1.000000
  1.000000,1,1.000000
  1.000000,1,1.000000
  1.000000,1,1.000000
  1.000000,1,1.000000
  1.000000,1,1.000000
  1.000000,1,1.000000
  1.000000,1,1.000000
  1.000000,1,1.000000
  1.000000,1,1.000000
  1.000000,1,1.000000
  1.000000,1,1.000000
  1.000000,1,1.000000
  1.000000,1,1.000000
  1.000000,1,1.000000
  1.000000,1,1.000000
  1.000000,1,1.000000
  1.000000,1,1.000000
  1.000000,1,1.000000
  1.000000,1,1.000000
  1.000000,1,1.000000
  1.000000,1,1.000000
  1.000000,1,1.000000
  1.000000,1,1.000000
  1.000000,1,1.000000
  1.000000,1,1.000000
  1.000000,1,1.000000
  1.000000,1,1.000000
  1.000000,1,1.000000
  1.000000,1,1.000000
  1.000000,1,1.000000
  1.000000,1,1.000000
  1.000000,1,1.000000
  1.000000,1,1.000000
  1.000000,1,1.000000
  1.000000,1,1.000000
  1.000000,1,1.000000
  1.000000,1,1.000000
  1.000000,1,1.000000
  1.000000,1,1.000000
  1.000000,1,1.000000
  1.000000,1,1.000000
  1.000000,1,1.000000
  1.000000,1,1.000000
  1.000000,1,1.000000
  1.000000,1,1.000000
  1.000000,1,1.000000
  1.000000,1,1.000000
  1.000000,1,1.000000
  1.000000,1,1.000000
  1.000000,1,1.000000
  1.000000,1,1.000000
  1.000000,1,1.000000
  1.000000,1,1.000000
  1.000000,1,1.000000
  1.000000,1,1.000000
  1.000000,1,1.000000
  1.000000,1,1.000000
  1.000000,1,1.000000
  1.000000,1,1.000000
  1.000000,1,1.000000
  1.000000,1,1.000000
  1.000000,1,1.000000
  1.000000,1,1.000000
  1.000000,1,1.000000
  1.000000,1,1.000000
  1.000000,1,1.000000
  1.000000,1,1.000000
  1.000000,1,1.000000
  1.000000,1,1.000000
  1.000000,1,1.000000
  END PERIODDATA