# OC6 File Generated by iMOD [V5_0 X64 Optimized]

#General Options

BEGIN OPTIONS
 BUDGET FILEOUT .\GWF_1\MODELOUTPUT\BUDGET\BUDGET.CBC
 HEAD FILEOUT .\GWF_1\MODELOUTPUT\HEAD\HEAD.HED
END OPTIONS
HEAD SAVE UNIT 51

#Stressperiod Save Options

BEGIN PERIOD 1
 SAVE HEAD ALL
 SAVE BUDGET ALL
END PERIOD

#Stressperiod Save Options

BEGIN PERIOD 2
 SAVE HEAD ALL
 SAVE BUDGET ALL
END PERIOD

#Stressperiod Save Options

BEGIN PERIOD 3
 SAVE HEAD ALL
 SAVE BUDGET ALL
END PERIOD

#Stressperiod Save Options

BEGIN PERIOD 4
 SAVE HEAD ALL
 SAVE BUDGET ALL
END PERIOD

#Stressperiod Save Options

BEGIN PERIOD 5
 SAVE HEAD ALL
 SAVE BUDGET ALL
END PERIOD

#Stressperiod Save Options

BEGIN PERIOD 6
 SAVE HEAD ALL
 SAVE BUDGET ALL
END PERIOD

#Stressperiod Save Options

BEGIN PERIOD 7
 SAVE HEAD ALL
 SAVE BUDGET ALL
END PERIOD

#Stressperiod Save Options

BEGIN PERIOD 8
 SAVE HEAD ALL
 SAVE BUDGET ALL
END PERIOD

#Stressperiod Save Options

BEGIN PERIOD 9
 SAVE HEAD ALL
 SAVE BUDGET ALL
END PERIOD

#Stressperiod Save Options

BEGIN PERIOD 10
 SAVE HEAD ALL
 SAVE BUDGET ALL
END PERIOD

#Stressperiod Save Options

BEGIN PERIOD 11
 SAVE HEAD ALL
 SAVE BUDGET ALL
END PERIOD

#Stressperiod Save Options

BEGIN PERIOD 12
 SAVE HEAD ALL
 SAVE BUDGET ALL
END PERIOD

#Stressperiod Save Options

BEGIN PERIOD 13
 SAVE HEAD ALL
 SAVE BUDGET ALL
END PERIOD

#Stressperiod Save Options

BEGIN PERIOD 14
 SAVE HEAD ALL
 SAVE BUDGET ALL
END PERIOD

#Stressperiod Save Options

BEGIN PERIOD 15
 SAVE HEAD ALL
 SAVE BUDGET ALL
END PERIOD

#Stressperiod Save Options

BEGIN PERIOD 16
 SAVE HEAD ALL
 SAVE BUDGET ALL
END PERIOD

#Stressperiod Save Options

BEGIN PERIOD 17
 SAVE HEAD ALL
 SAVE BUDGET ALL
END PERIOD

#Stressperiod Save Options

BEGIN PERIOD 18
 SAVE HEAD ALL
 SAVE BUDGET ALL
END PERIOD

#Stressperiod Save Options

BEGIN PERIOD 19
 SAVE HEAD ALL
 SAVE BUDGET ALL
END PERIOD

#Stressperiod Save Options

BEGIN PERIOD 20
 SAVE HEAD ALL
 SAVE BUDGET ALL
END PERIOD

#Stressperiod Save Options

BEGIN PERIOD 21
 SAVE HEAD ALL
 SAVE BUDGET ALL
END PERIOD

#Stressperiod Save Options

BEGIN PERIOD 22
 SAVE HEAD ALL
 SAVE BUDGET ALL
END PERIOD

#Stressperiod Save Options

BEGIN PERIOD 23
 SAVE HEAD ALL
 SAVE BUDGET ALL
END PERIOD

#Stressperiod Save Options

BEGIN PERIOD 24
 SAVE HEAD ALL
 SAVE BUDGET ALL
END PERIOD

#Stressperiod Save Options

BEGIN PERIOD 25
 SAVE HEAD ALL
 SAVE BUDGET ALL
END PERIOD

#Stressperiod Save Options

BEGIN PERIOD 26
 SAVE HEAD ALL
 SAVE BUDGET ALL
END PERIOD

#Stressperiod Save Options

BEGIN PERIOD 27
 SAVE HEAD ALL
 SAVE BUDGET ALL
END PERIOD

#Stressperiod Save Options

BEGIN PERIOD 28
 SAVE HEAD ALL
 SAVE BUDGET ALL
END PERIOD

#Stressperiod Save Options

BEGIN PERIOD 29
 SAVE HEAD ALL
 SAVE BUDGET ALL
END PERIOD

#Stressperiod Save Options

BEGIN PERIOD 30
 SAVE HEAD ALL
 SAVE BUDGET ALL
END PERIOD

#Stressperiod Save Options

BEGIN PERIOD 31
 SAVE HEAD ALL
 SAVE BUDGET ALL
END PERIOD

#Stressperiod Save Options

BEGIN PERIOD 32
 SAVE HEAD ALL
 SAVE BUDGET ALL
END PERIOD

#Stressperiod Save Options

BEGIN PERIOD 33
 SAVE HEAD ALL
 SAVE BUDGET ALL
END PERIOD

#Stressperiod Save Options

BEGIN PERIOD 34
 SAVE HEAD ALL
 SAVE BUDGET ALL
END PERIOD

#Stressperiod Save Options

BEGIN PERIOD 35
 SAVE HEAD ALL
 SAVE BUDGET ALL
END PERIOD

#Stressperiod Save Options

BEGIN PERIOD 36
 SAVE HEAD ALL
 SAVE BUDGET ALL
END PERIOD

#Stressperiod Save Options

BEGIN PERIOD 37
 SAVE HEAD ALL
 SAVE BUDGET ALL
END PERIOD

#Stressperiod Save Options

BEGIN PERIOD 38
 SAVE HEAD ALL
 SAVE BUDGET ALL
END PERIOD

#Stressperiod Save Options

BEGIN PERIOD 39
 SAVE HEAD ALL
 SAVE BUDGET ALL
END PERIOD

#Stressperiod Save Options

BEGIN PERIOD 40
 SAVE HEAD ALL
 SAVE BUDGET ALL
END PERIOD

#Stressperiod Save Options

BEGIN PERIOD 41
 SAVE HEAD ALL
 SAVE BUDGET ALL
END PERIOD

#Stressperiod Save Options

BEGIN PERIOD 42
 SAVE HEAD ALL
 SAVE BUDGET ALL
END PERIOD

#Stressperiod Save Options

BEGIN PERIOD 43
 SAVE HEAD ALL
 SAVE BUDGET ALL
END PERIOD

#Stressperiod Save Options

BEGIN PERIOD 44
 SAVE HEAD ALL
 SAVE BUDGET ALL
END PERIOD

#Stressperiod Save Options

BEGIN PERIOD 45
 SAVE HEAD ALL
 SAVE BUDGET ALL
END PERIOD

#Stressperiod Save Options

BEGIN PERIOD 46
 SAVE HEAD ALL
 SAVE BUDGET ALL
END PERIOD

#Stressperiod Save Options

BEGIN PERIOD 47
 SAVE HEAD ALL
 SAVE BUDGET ALL
END PERIOD

#Stressperiod Save Options

BEGIN PERIOD 48
 SAVE HEAD ALL
 SAVE BUDGET ALL
END PERIOD

#Stressperiod Save Options

BEGIN PERIOD 49
 SAVE HEAD ALL
 SAVE BUDGET ALL
END PERIOD

#Stressperiod Save Options

BEGIN PERIOD 50
 SAVE HEAD ALL
 SAVE BUDGET ALL
END PERIOD

#Stressperiod Save Options

BEGIN PERIOD 51
 SAVE HEAD ALL
 SAVE BUDGET ALL
END PERIOD

#Stressperiod Save Options

BEGIN PERIOD 52
 SAVE HEAD ALL
 SAVE BUDGET ALL
END PERIOD

#Stressperiod Save Options

BEGIN PERIOD 53
 SAVE HEAD ALL
 SAVE BUDGET ALL
END PERIOD

#Stressperiod Save Options

BEGIN PERIOD 54
 SAVE HEAD ALL
 SAVE BUDGET ALL
END PERIOD

#Stressperiod Save Options

BEGIN PERIOD 55
 SAVE HEAD ALL
 SAVE BUDGET ALL
END PERIOD

#Stressperiod Save Options

BEGIN PERIOD 56
 SAVE HEAD ALL
 SAVE BUDGET ALL
END PERIOD

#Stressperiod Save Options

BEGIN PERIOD 57
 SAVE HEAD ALL
 SAVE BUDGET ALL
END PERIOD

#Stressperiod Save Options

BEGIN PERIOD 58
 SAVE HEAD ALL
 SAVE BUDGET ALL
END PERIOD

#Stressperiod Save Options

BEGIN PERIOD 59
 SAVE HEAD ALL
 SAVE BUDGET ALL
END PERIOD

#Stressperiod Save Options

BEGIN PERIOD 60
 SAVE HEAD ALL
 SAVE BUDGET ALL
END PERIOD

#Stressperiod Save Options

BEGIN PERIOD 61
 SAVE HEAD ALL
 SAVE BUDGET ALL
END PERIOD

#Stressperiod Save Options

BEGIN PERIOD 62
 SAVE HEAD ALL
 SAVE BUDGET ALL
END PERIOD

#Stressperiod Save Options

BEGIN PERIOD 63
 SAVE HEAD ALL
 SAVE BUDGET ALL
END PERIOD

#Stressperiod Save Options

BEGIN PERIOD 64
 SAVE HEAD ALL
 SAVE BUDGET ALL
END PERIOD

#Stressperiod Save Options

BEGIN PERIOD 65
 SAVE HEAD ALL
 SAVE BUDGET ALL
END PERIOD

#Stressperiod Save Options

BEGIN PERIOD 66
 SAVE HEAD ALL
 SAVE BUDGET ALL
END PERIOD

#Stressperiod Save Options

BEGIN PERIOD 67
 SAVE HEAD ALL
 SAVE BUDGET ALL
END PERIOD

#Stressperiod Save Options

BEGIN PERIOD 68
 SAVE HEAD ALL
 SAVE BUDGET ALL
END PERIOD

#Stressperiod Save Options

BEGIN PERIOD 69
 SAVE HEAD ALL
 SAVE BUDGET ALL
END PERIOD

#Stressperiod Save Options

BEGIN PERIOD 70
 SAVE HEAD ALL
 SAVE BUDGET ALL
END PERIOD

#Stressperiod Save Options

BEGIN PERIOD 71
 SAVE HEAD ALL
 SAVE BUDGET ALL
END PERIOD

#Stressperiod Save Options

BEGIN PERIOD 72
 SAVE HEAD ALL
 SAVE BUDGET ALL
END PERIOD

#Stressperiod Save Options

BEGIN PERIOD 73
 SAVE HEAD ALL
 SAVE BUDGET ALL
END PERIOD

#Stressperiod Save Options

BEGIN PERIOD 74
 SAVE HEAD ALL
 SAVE BUDGET ALL
END PERIOD

#Stressperiod Save Options

BEGIN PERIOD 75
 SAVE HEAD ALL
 SAVE BUDGET ALL
END PERIOD

#Stressperiod Save Options

BEGIN PERIOD 76
 SAVE HEAD ALL
 SAVE BUDGET ALL
END PERIOD

#Stressperiod Save Options

BEGIN PERIOD 77
 SAVE HEAD ALL
 SAVE BUDGET ALL
END PERIOD

#Stressperiod Save Options

BEGIN PERIOD 78
 SAVE HEAD ALL
 SAVE BUDGET ALL
END PERIOD

#Stressperiod Save Options

BEGIN PERIOD 79
 SAVE HEAD ALL
 SAVE BUDGET ALL
END PERIOD

#Stressperiod Save Options

BEGIN PERIOD 80
 SAVE HEAD ALL
 SAVE BUDGET ALL
END PERIOD

#Stressperiod Save Options

BEGIN PERIOD 81
 SAVE HEAD ALL
 SAVE BUDGET ALL
END PERIOD

#Stressperiod Save Options

BEGIN PERIOD 82
 SAVE HEAD ALL
 SAVE BUDGET ALL
END PERIOD

#Stressperiod Save Options

BEGIN PERIOD 83
 SAVE HEAD ALL
 SAVE BUDGET ALL
END PERIOD

#Stressperiod Save Options

BEGIN PERIOD 84
 SAVE HEAD ALL
 SAVE BUDGET ALL
END PERIOD

#Stressperiod Save Options

BEGIN PERIOD 85
 SAVE HEAD ALL
 SAVE BUDGET ALL
END PERIOD

#Stressperiod Save Options

BEGIN PERIOD 86
 SAVE HEAD ALL
 SAVE BUDGET ALL
END PERIOD

#Stressperiod Save Options

BEGIN PERIOD 87
 SAVE HEAD ALL
 SAVE BUDGET ALL
END PERIOD

#Stressperiod Save Options

BEGIN PERIOD 88
 SAVE HEAD ALL
 SAVE BUDGET ALL
END PERIOD

#Stressperiod Save Options

BEGIN PERIOD 89
 SAVE HEAD ALL
 SAVE BUDGET ALL
END PERIOD

#Stressperiod Save Options

BEGIN PERIOD 90
 SAVE HEAD ALL
 SAVE BUDGET ALL
END PERIOD

#Stressperiod Save Options

BEGIN PERIOD 91
 SAVE HEAD ALL
 SAVE BUDGET ALL
END PERIOD

#Stressperiod Save Options

BEGIN PERIOD 92
 SAVE HEAD ALL
 SAVE BUDGET ALL
END PERIOD

#Stressperiod Save Options

BEGIN PERIOD 93
 SAVE HEAD ALL
 SAVE BUDGET ALL
END PERIOD

#Stressperiod Save Options

BEGIN PERIOD 94
 SAVE HEAD ALL
 SAVE BUDGET ALL
END PERIOD

#Stressperiod Save Options

BEGIN PERIOD 95
 SAVE HEAD ALL
 SAVE BUDGET ALL
END PERIOD

#Stressperiod Save Options

BEGIN PERIOD 96
 SAVE HEAD ALL
 SAVE BUDGET ALL
END PERIOD

#Stressperiod Save Options

BEGIN PERIOD 97
 SAVE HEAD ALL
 SAVE BUDGET ALL
END PERIOD

#Stressperiod Save Options

BEGIN PERIOD 98
 SAVE HEAD ALL
 SAVE BUDGET ALL
END PERIOD

#Stressperiod Save Options

BEGIN PERIOD 99
 SAVE HEAD ALL
 SAVE BUDGET ALL
END PERIOD

#Stressperiod Save Options

BEGIN PERIOD 100
 SAVE HEAD ALL
 SAVE BUDGET ALL
END PERIOD

#Stressperiod Save Options

BEGIN PERIOD 101
 SAVE HEAD ALL
 SAVE BUDGET ALL
END PERIOD

#Stressperiod Save Options

BEGIN PERIOD 102
 SAVE HEAD ALL
 SAVE BUDGET ALL
END PERIOD

#Stressperiod Save Options

BEGIN PERIOD 103
 SAVE HEAD ALL
 SAVE BUDGET ALL
END PERIOD

#Stressperiod Save Options

BEGIN PERIOD 104
 SAVE HEAD ALL
 SAVE BUDGET ALL
END PERIOD

#Stressperiod Save Options

BEGIN PERIOD 105
 SAVE HEAD ALL
 SAVE BUDGET ALL
END PERIOD

#Stressperiod Save Options

BEGIN PERIOD 106
 SAVE HEAD ALL
 SAVE BUDGET ALL
END PERIOD

#Stressperiod Save Options

BEGIN PERIOD 107
 SAVE HEAD ALL
 SAVE BUDGET ALL
END PERIOD

#Stressperiod Save Options

BEGIN PERIOD 108
 SAVE HEAD ALL
 SAVE BUDGET ALL
END PERIOD

#Stressperiod Save Options

BEGIN PERIOD 109
 SAVE HEAD ALL
 SAVE BUDGET ALL
END PERIOD

#Stressperiod Save Options

BEGIN PERIOD 110
 SAVE HEAD ALL
 SAVE BUDGET ALL
END PERIOD

#Stressperiod Save Options

BEGIN PERIOD 111
 SAVE HEAD ALL
 SAVE BUDGET ALL
END PERIOD

#Stressperiod Save Options

BEGIN PERIOD 112
 SAVE HEAD ALL
 SAVE BUDGET ALL
END PERIOD

#Stressperiod Save Options

BEGIN PERIOD 113
 SAVE HEAD ALL
 SAVE BUDGET ALL
END PERIOD

#Stressperiod Save Options

BEGIN PERIOD 114
 SAVE HEAD ALL
 SAVE BUDGET ALL
END PERIOD

#Stressperiod Save Options

BEGIN PERIOD 115
 SAVE HEAD ALL
 SAVE BUDGET ALL
END PERIOD

#Stressperiod Save Options

BEGIN PERIOD 116
 SAVE HEAD ALL
 SAVE BUDGET ALL
END PERIOD

#Stressperiod Save Options

BEGIN PERIOD 117
 SAVE HEAD ALL
 SAVE BUDGET ALL
END PERIOD

#Stressperiod Save Options

BEGIN PERIOD 118
 SAVE HEAD ALL
 SAVE BUDGET ALL
END PERIOD

#Stressperiod Save Options

BEGIN PERIOD 119
 SAVE HEAD ALL
 SAVE BUDGET ALL
END PERIOD

#Stressperiod Save Options

BEGIN PERIOD 120
 SAVE HEAD ALL
 SAVE BUDGET ALL
END PERIOD

#Stressperiod Save Options

BEGIN PERIOD 121
 SAVE HEAD ALL
 SAVE BUDGET ALL
END PERIOD

#Stressperiod Save Options

BEGIN PERIOD 122
 SAVE HEAD ALL
 SAVE BUDGET ALL
END PERIOD

#Stressperiod Save Options

BEGIN PERIOD 123
 SAVE HEAD ALL
 SAVE BUDGET ALL
END PERIOD

#Stressperiod Save Options

BEGIN PERIOD 124
 SAVE HEAD ALL
 SAVE BUDGET ALL
END PERIOD

#Stressperiod Save Options

BEGIN PERIOD 125
 SAVE HEAD ALL
 SAVE BUDGET ALL
END PERIOD

#Stressperiod Save Options

BEGIN PERIOD 126
 SAVE HEAD ALL
 SAVE BUDGET ALL
END PERIOD

#Stressperiod Save Options

BEGIN PERIOD 127
 SAVE HEAD ALL
 SAVE BUDGET ALL
END PERIOD

#Stressperiod Save Options

BEGIN PERIOD 128
 SAVE HEAD ALL
 SAVE BUDGET ALL
END PERIOD

#Stressperiod Save Options

BEGIN PERIOD 129
 SAVE HEAD ALL
 SAVE BUDGET ALL
END PERIOD

#Stressperiod Save Options

BEGIN PERIOD 130
 SAVE HEAD ALL
 SAVE BUDGET ALL
END PERIOD

#Stressperiod Save Options

BEGIN PERIOD 131
 SAVE HEAD ALL
 SAVE BUDGET ALL
END PERIOD

#Stressperiod Save Options

BEGIN PERIOD 132
 SAVE HEAD ALL
 SAVE BUDGET ALL
END PERIOD

#Stressperiod Save Options

BEGIN PERIOD 133
 SAVE HEAD ALL
 SAVE BUDGET ALL
END PERIOD

#Stressperiod Save Options

BEGIN PERIOD 134
 SAVE HEAD ALL
 SAVE BUDGET ALL
END PERIOD

#Stressperiod Save Options

BEGIN PERIOD 135
 SAVE HEAD ALL
 SAVE BUDGET ALL
END PERIOD

#Stressperiod Save Options

BEGIN PERIOD 136
 SAVE HEAD ALL
 SAVE BUDGET ALL
END PERIOD

#Stressperiod Save Options

BEGIN PERIOD 137
 SAVE HEAD ALL
 SAVE BUDGET ALL
END PERIOD

#Stressperiod Save Options

BEGIN PERIOD 138
 SAVE HEAD ALL
 SAVE BUDGET ALL
END PERIOD

#Stressperiod Save Options

BEGIN PERIOD 139
 SAVE HEAD ALL
 SAVE BUDGET ALL
END PERIOD

#Stressperiod Save Options

BEGIN PERIOD 140
 SAVE HEAD ALL
 SAVE BUDGET ALL
END PERIOD

#Stressperiod Save Options

BEGIN PERIOD 141
 SAVE HEAD ALL
 SAVE BUDGET ALL
END PERIOD

#Stressperiod Save Options

BEGIN PERIOD 142
 SAVE HEAD ALL
 SAVE BUDGET ALL
END PERIOD

#Stressperiod Save Options

BEGIN PERIOD 143
 SAVE HEAD ALL
 SAVE BUDGET ALL
END PERIOD

#Stressperiod Save Options

BEGIN PERIOD 144
 SAVE HEAD ALL
 SAVE BUDGET ALL
END PERIOD

#Stressperiod Save Options

BEGIN PERIOD 145
 SAVE HEAD ALL
 SAVE BUDGET ALL
END PERIOD

#Stressperiod Save Options

BEGIN PERIOD 146
 SAVE HEAD ALL
 SAVE BUDGET ALL
END PERIOD

#Stressperiod Save Options

BEGIN PERIOD 147
 SAVE HEAD ALL
 SAVE BUDGET ALL
END PERIOD

#Stressperiod Save Options

BEGIN PERIOD 148
 SAVE HEAD ALL
 SAVE BUDGET ALL
END PERIOD

#Stressperiod Save Options

BEGIN PERIOD 149
 SAVE HEAD ALL
 SAVE BUDGET ALL
END PERIOD

#Stressperiod Save Options

BEGIN PERIOD 150
 SAVE HEAD ALL
 SAVE BUDGET ALL
END PERIOD

#Stressperiod Save Options

BEGIN PERIOD 151
 SAVE HEAD ALL
 SAVE BUDGET ALL
END PERIOD

#Stressperiod Save Options

BEGIN PERIOD 152
 SAVE HEAD ALL
 SAVE BUDGET ALL
END PERIOD

#Stressperiod Save Options

BEGIN PERIOD 153
 SAVE HEAD ALL
 SAVE BUDGET ALL
END PERIOD

#Stressperiod Save Options

BEGIN PERIOD 154
 SAVE HEAD ALL
 SAVE BUDGET ALL
END PERIOD

#Stressperiod Save Options

BEGIN PERIOD 155
 SAVE HEAD ALL
 SAVE BUDGET ALL
END PERIOD

#Stressperiod Save Options

BEGIN PERIOD 156
 SAVE HEAD ALL
 SAVE BUDGET ALL
END PERIOD

#Stressperiod Save Options

BEGIN PERIOD 157
 SAVE HEAD ALL
 SAVE BUDGET ALL
END PERIOD

#Stressperiod Save Options

BEGIN PERIOD 158
 SAVE HEAD ALL
 SAVE BUDGET ALL
END PERIOD

#Stressperiod Save Options

BEGIN PERIOD 159
 SAVE HEAD ALL
 SAVE BUDGET ALL
END PERIOD

#Stressperiod Save Options

BEGIN PERIOD 160
 SAVE HEAD ALL
 SAVE BUDGET ALL
END PERIOD

#Stressperiod Save Options

BEGIN PERIOD 161
 SAVE HEAD ALL
 SAVE BUDGET ALL
END PERIOD

#Stressperiod Save Options

BEGIN PERIOD 162
 SAVE HEAD ALL
 SAVE BUDGET ALL
END PERIOD

#Stressperiod Save Options

BEGIN PERIOD 163
 SAVE HEAD ALL
 SAVE BUDGET ALL
END PERIOD

#Stressperiod Save Options

BEGIN PERIOD 164
 SAVE HEAD ALL
 SAVE BUDGET ALL
END PERIOD

#Stressperiod Save Options

BEGIN PERIOD 165
 SAVE HEAD ALL
 SAVE BUDGET ALL
END PERIOD

#Stressperiod Save Options

BEGIN PERIOD 166
 SAVE HEAD ALL
 SAVE BUDGET ALL
END PERIOD

#Stressperiod Save Options

BEGIN PERIOD 167
 SAVE HEAD ALL
 SAVE BUDGET ALL
END PERIOD

#Stressperiod Save Options

BEGIN PERIOD 168
 SAVE HEAD ALL
 SAVE BUDGET ALL
END PERIOD

#Stressperiod Save Options

BEGIN PERIOD 169
 SAVE HEAD ALL
 SAVE BUDGET ALL
END PERIOD

#Stressperiod Save Options

BEGIN PERIOD 170
 SAVE HEAD ALL
 SAVE BUDGET ALL
END PERIOD

#Stressperiod Save Options

BEGIN PERIOD 171
 SAVE HEAD ALL
 SAVE BUDGET ALL
END PERIOD

#Stressperiod Save Options

BEGIN PERIOD 172
 SAVE HEAD ALL
 SAVE BUDGET ALL
END PERIOD

#Stressperiod Save Options

BEGIN PERIOD 173
 SAVE HEAD ALL
 SAVE BUDGET ALL
END PERIOD

#Stressperiod Save Options

BEGIN PERIOD 174
 SAVE HEAD ALL
 SAVE BUDGET ALL
END PERIOD

#Stressperiod Save Options

BEGIN PERIOD 175
 SAVE HEAD ALL
 SAVE BUDGET ALL
END PERIOD

#Stressperiod Save Options

BEGIN PERIOD 176
 SAVE HEAD ALL
 SAVE BUDGET ALL
END PERIOD

#Stressperiod Save Options

BEGIN PERIOD 177
 SAVE HEAD ALL
 SAVE BUDGET ALL
END PERIOD

#Stressperiod Save Options

BEGIN PERIOD 178
 SAVE HEAD ALL
 SAVE BUDGET ALL
END PERIOD

#Stressperiod Save Options

BEGIN PERIOD 179
 SAVE HEAD ALL
 SAVE BUDGET ALL
END PERIOD

#Stressperiod Save Options

BEGIN PERIOD 180
 SAVE HEAD ALL
 SAVE BUDGET ALL
END PERIOD

#Stressperiod Save Options

BEGIN PERIOD 181
 SAVE HEAD ALL
 SAVE BUDGET ALL
END PERIOD

#Stressperiod Save Options

BEGIN PERIOD 182
 SAVE HEAD ALL
 SAVE BUDGET ALL
END PERIOD

#Stressperiod Save Options

BEGIN PERIOD 183
 SAVE HEAD ALL
 SAVE BUDGET ALL
END PERIOD

#Stressperiod Save Options

BEGIN PERIOD 184
 SAVE HEAD ALL
 SAVE BUDGET ALL
END PERIOD

#Stressperiod Save Options

BEGIN PERIOD 185
 SAVE HEAD ALL
 SAVE BUDGET ALL
END PERIOD

#Stressperiod Save Options

BEGIN PERIOD 186
 SAVE HEAD ALL
 SAVE BUDGET ALL
END PERIOD

#Stressperiod Save Options

BEGIN PERIOD 187
 SAVE HEAD ALL
 SAVE BUDGET ALL
END PERIOD

#Stressperiod Save Options

BEGIN PERIOD 188
 SAVE HEAD ALL
 SAVE BUDGET ALL
END PERIOD

#Stressperiod Save Options

BEGIN PERIOD 189
 SAVE HEAD ALL
 SAVE BUDGET ALL
END PERIOD

#Stressperiod Save Options

BEGIN PERIOD 190
 SAVE HEAD ALL
 SAVE BUDGET ALL
END PERIOD

#Stressperiod Save Options

BEGIN PERIOD 191
 SAVE HEAD ALL
 SAVE BUDGET ALL
END PERIOD

#Stressperiod Save Options

BEGIN PERIOD 192
 SAVE HEAD ALL
 SAVE BUDGET ALL
END PERIOD

#Stressperiod Save Options

BEGIN PERIOD 193
 SAVE HEAD ALL
 SAVE BUDGET ALL
END PERIOD

#Stressperiod Save Options

BEGIN PERIOD 194
 SAVE HEAD ALL
 SAVE BUDGET ALL
END PERIOD

#Stressperiod Save Options

BEGIN PERIOD 195
 SAVE HEAD ALL
 SAVE BUDGET ALL
END PERIOD

#Stressperiod Save Options

BEGIN PERIOD 196
 SAVE HEAD ALL
 SAVE BUDGET ALL
END PERIOD

#Stressperiod Save Options

BEGIN PERIOD 197
 SAVE HEAD ALL
 SAVE BUDGET ALL
END PERIOD

#Stressperiod Save Options

BEGIN PERIOD 198
 SAVE HEAD ALL
 SAVE BUDGET ALL
END PERIOD

#Stressperiod Save Options

BEGIN PERIOD 199
 SAVE HEAD ALL
 SAVE BUDGET ALL
END PERIOD

#Stressperiod Save Options

BEGIN PERIOD 200
 SAVE HEAD ALL
 SAVE BUDGET ALL
END PERIOD

#Stressperiod Save Options

BEGIN PERIOD 201
 SAVE HEAD ALL
 SAVE BUDGET ALL
END PERIOD

#Stressperiod Save Options

BEGIN PERIOD 202
 SAVE HEAD ALL
 SAVE BUDGET ALL
END PERIOD

#Stressperiod Save Options

BEGIN PERIOD 203
 SAVE HEAD ALL
 SAVE BUDGET ALL
END PERIOD

#Stressperiod Save Options

BEGIN PERIOD 204
 SAVE HEAD ALL
 SAVE BUDGET ALL
END PERIOD

#Stressperiod Save Options

BEGIN PERIOD 205
 SAVE HEAD ALL
 SAVE BUDGET ALL
END PERIOD

#Stressperiod Save Options

BEGIN PERIOD 206
 SAVE HEAD ALL
 SAVE BUDGET ALL
END PERIOD

#Stressperiod Save Options

BEGIN PERIOD 207
 SAVE HEAD ALL
 SAVE BUDGET ALL
END PERIOD

#Stressperiod Save Options

BEGIN PERIOD 208
 SAVE HEAD ALL
 SAVE BUDGET ALL
END PERIOD

#Stressperiod Save Options

BEGIN PERIOD 209
 SAVE HEAD ALL
 SAVE BUDGET ALL
END PERIOD

#Stressperiod Save Options

BEGIN PERIOD 210
 SAVE HEAD ALL
 SAVE BUDGET ALL
END PERIOD

#Stressperiod Save Options

BEGIN PERIOD 211
 SAVE HEAD ALL
 SAVE BUDGET ALL
END PERIOD

#Stressperiod Save Options

BEGIN PERIOD 212
 SAVE HEAD ALL
 SAVE BUDGET ALL
END PERIOD

#Stressperiod Save Options

BEGIN PERIOD 213
 SAVE HEAD ALL
 SAVE BUDGET ALL
END PERIOD

#Stressperiod Save Options

BEGIN PERIOD 214
 SAVE HEAD ALL
 SAVE BUDGET ALL
END PERIOD

#Stressperiod Save Options

BEGIN PERIOD 215
 SAVE HEAD ALL
 SAVE BUDGET ALL
END PERIOD

#Stressperiod Save Options

BEGIN PERIOD 216
 SAVE HEAD ALL
 SAVE BUDGET ALL
END PERIOD

#Stressperiod Save Options

BEGIN PERIOD 217
 SAVE HEAD ALL
 SAVE BUDGET ALL
END PERIOD

#Stressperiod Save Options

BEGIN PERIOD 218
 SAVE HEAD ALL
 SAVE BUDGET ALL
END PERIOD

#Stressperiod Save Options

BEGIN PERIOD 219
 SAVE HEAD ALL
 SAVE BUDGET ALL
END PERIOD

#Stressperiod Save Options

BEGIN PERIOD 220
 SAVE HEAD ALL
 SAVE BUDGET ALL
END PERIOD

#Stressperiod Save Options

BEGIN PERIOD 221
 SAVE HEAD ALL
 SAVE BUDGET ALL
END PERIOD

#Stressperiod Save Options

BEGIN PERIOD 222
 SAVE HEAD ALL
 SAVE BUDGET ALL
END PERIOD

#Stressperiod Save Options

BEGIN PERIOD 223
 SAVE HEAD ALL
 SAVE BUDGET ALL
END PERIOD

#Stressperiod Save Options

BEGIN PERIOD 224
 SAVE HEAD ALL
 SAVE BUDGET ALL
END PERIOD

#Stressperiod Save Options

BEGIN PERIOD 225
 SAVE HEAD ALL
 SAVE BUDGET ALL
END PERIOD

#Stressperiod Save Options

BEGIN PERIOD 226
 SAVE HEAD ALL
 SAVE BUDGET ALL
END PERIOD

#Stressperiod Save Options

BEGIN PERIOD 227
 SAVE HEAD ALL
 SAVE BUDGET ALL
END PERIOD

#Stressperiod Save Options

BEGIN PERIOD 228
 SAVE HEAD ALL
 SAVE BUDGET ALL
END PERIOD

#Stressperiod Save Options

BEGIN PERIOD 229
 SAVE HEAD ALL
 SAVE BUDGET ALL
END PERIOD

#Stressperiod Save Options

BEGIN PERIOD 230
 SAVE HEAD ALL
 SAVE BUDGET ALL
END PERIOD

#Stressperiod Save Options

BEGIN PERIOD 231
 SAVE HEAD ALL
 SAVE BUDGET ALL
END PERIOD

#Stressperiod Save Options

BEGIN PERIOD 232
 SAVE HEAD ALL
 SAVE BUDGET ALL
END PERIOD

#Stressperiod Save Options

BEGIN PERIOD 233
 SAVE HEAD ALL
 SAVE BUDGET ALL
END PERIOD

#Stressperiod Save Options

BEGIN PERIOD 234
 SAVE HEAD ALL
 SAVE BUDGET ALL
END PERIOD

#Stressperiod Save Options

BEGIN PERIOD 235
 SAVE HEAD ALL
 SAVE BUDGET ALL
END PERIOD

#Stressperiod Save Options

BEGIN PERIOD 236
 SAVE HEAD ALL
 SAVE BUDGET ALL
END PERIOD

#Stressperiod Save Options

BEGIN PERIOD 237
 SAVE HEAD ALL
 SAVE BUDGET ALL
END PERIOD

#Stressperiod Save Options

BEGIN PERIOD 238
 SAVE HEAD ALL
 SAVE BUDGET ALL
END PERIOD

#Stressperiod Save Options

BEGIN PERIOD 239
 SAVE HEAD ALL
 SAVE BUDGET ALL
END PERIOD

#Stressperiod Save Options

BEGIN PERIOD 240
 SAVE HEAD ALL
 SAVE BUDGET ALL
END PERIOD

#Stressperiod Save Options

BEGIN PERIOD 241
 SAVE HEAD ALL
 SAVE BUDGET ALL
END PERIOD

#Stressperiod Save Options

BEGIN PERIOD 242
 SAVE HEAD ALL
 SAVE BUDGET ALL
END PERIOD

#Stressperiod Save Options

BEGIN PERIOD 243
 SAVE HEAD ALL
 SAVE BUDGET ALL
END PERIOD

#Stressperiod Save Options

BEGIN PERIOD 244
 SAVE HEAD ALL
 SAVE BUDGET ALL
END PERIOD

#Stressperiod Save Options

BEGIN PERIOD 245
 SAVE HEAD ALL
 SAVE BUDGET ALL
END PERIOD

#Stressperiod Save Options

BEGIN PERIOD 246
 SAVE HEAD ALL
 SAVE BUDGET ALL
END PERIOD

#Stressperiod Save Options

BEGIN PERIOD 247
 SAVE HEAD ALL
 SAVE BUDGET ALL
END PERIOD

#Stressperiod Save Options

BEGIN PERIOD 248
 SAVE HEAD ALL
 SAVE BUDGET ALL
END PERIOD

#Stressperiod Save Options

BEGIN PERIOD 249
 SAVE HEAD ALL
 SAVE BUDGET ALL
END PERIOD

#Stressperiod Save Options

BEGIN PERIOD 250
 SAVE HEAD ALL
 SAVE BUDGET ALL
END PERIOD

#Stressperiod Save Options

BEGIN PERIOD 251
 SAVE HEAD ALL
 SAVE BUDGET ALL
END PERIOD

#Stressperiod Save Options

BEGIN PERIOD 252
 SAVE HEAD ALL
 SAVE BUDGET ALL
END PERIOD

#Stressperiod Save Options

BEGIN PERIOD 253
 SAVE HEAD ALL
 SAVE BUDGET ALL
END PERIOD

#Stressperiod Save Options

BEGIN PERIOD 254
 SAVE HEAD ALL
 SAVE BUDGET ALL
END PERIOD

#Stressperiod Save Options

BEGIN PERIOD 255
 SAVE HEAD ALL
 SAVE BUDGET ALL
END PERIOD

#Stressperiod Save Options

BEGIN PERIOD 256
 SAVE HEAD ALL
 SAVE BUDGET ALL
END PERIOD

#Stressperiod Save Options

BEGIN PERIOD 257
 SAVE HEAD ALL
 SAVE BUDGET ALL
END PERIOD

#Stressperiod Save Options

BEGIN PERIOD 258
 SAVE HEAD ALL
 SAVE BUDGET ALL
END PERIOD

#Stressperiod Save Options

BEGIN PERIOD 259
 SAVE HEAD ALL
 SAVE BUDGET ALL
END PERIOD

#Stressperiod Save Options

BEGIN PERIOD 260
 SAVE HEAD ALL
 SAVE BUDGET ALL
END PERIOD

#Stressperiod Save Options

BEGIN PERIOD 261
 SAVE HEAD ALL
 SAVE BUDGET ALL
END PERIOD

#Stressperiod Save Options

BEGIN PERIOD 262
 SAVE HEAD ALL
 SAVE BUDGET ALL
END PERIOD

#Stressperiod Save Options

BEGIN PERIOD 263
 SAVE HEAD ALL
 SAVE BUDGET ALL
END PERIOD

#Stressperiod Save Options

BEGIN PERIOD 264
 SAVE HEAD ALL
 SAVE BUDGET ALL
END PERIOD

#Stressperiod Save Options

BEGIN PERIOD 265
 SAVE HEAD ALL
 SAVE BUDGET ALL
END PERIOD

#Stressperiod Save Options

BEGIN PERIOD 266
 SAVE HEAD ALL
 SAVE BUDGET ALL
END PERIOD

#Stressperiod Save Options

BEGIN PERIOD 267
 SAVE HEAD ALL
 SAVE BUDGET ALL
END PERIOD

#Stressperiod Save Options

BEGIN PERIOD 268
 SAVE HEAD ALL
 SAVE BUDGET ALL
END PERIOD

#Stressperiod Save Options

BEGIN PERIOD 269
 SAVE HEAD ALL
 SAVE BUDGET ALL
END PERIOD

#Stressperiod Save Options

BEGIN PERIOD 270
 SAVE HEAD ALL
 SAVE BUDGET ALL
END PERIOD

#Stressperiod Save Options

BEGIN PERIOD 271
 SAVE HEAD ALL
 SAVE BUDGET ALL
END PERIOD

#Stressperiod Save Options

BEGIN PERIOD 272
 SAVE HEAD ALL
 SAVE BUDGET ALL
END PERIOD

#Stressperiod Save Options

BEGIN PERIOD 273
 SAVE HEAD ALL
 SAVE BUDGET ALL
END PERIOD

#Stressperiod Save Options

BEGIN PERIOD 274
 SAVE HEAD ALL
 SAVE BUDGET ALL
END PERIOD

#Stressperiod Save Options

BEGIN PERIOD 275
 SAVE HEAD ALL
 SAVE BUDGET ALL
END PERIOD

#Stressperiod Save Options

BEGIN PERIOD 276
 SAVE HEAD ALL
 SAVE BUDGET ALL
END PERIOD

#Stressperiod Save Options

BEGIN PERIOD 277
 SAVE HEAD ALL
 SAVE BUDGET ALL
END PERIOD

#Stressperiod Save Options

BEGIN PERIOD 278
 SAVE HEAD ALL
 SAVE BUDGET ALL
END PERIOD

#Stressperiod Save Options

BEGIN PERIOD 279
 SAVE HEAD ALL
 SAVE BUDGET ALL
END PERIOD

#Stressperiod Save Options

BEGIN PERIOD 280
 SAVE HEAD ALL
 SAVE BUDGET ALL
END PERIOD

#Stressperiod Save Options

BEGIN PERIOD 281
 SAVE HEAD ALL
 SAVE BUDGET ALL
END PERIOD

#Stressperiod Save Options

BEGIN PERIOD 282
 SAVE HEAD ALL
 SAVE BUDGET ALL
END PERIOD

#Stressperiod Save Options

BEGIN PERIOD 283
 SAVE HEAD ALL
 SAVE BUDGET ALL
END PERIOD

#Stressperiod Save Options

BEGIN PERIOD 284
 SAVE HEAD ALL
 SAVE BUDGET ALL
END PERIOD

#Stressperiod Save Options

BEGIN PERIOD 285
 SAVE HEAD ALL
 SAVE BUDGET ALL
END PERIOD

#Stressperiod Save Options

BEGIN PERIOD 286
 SAVE HEAD ALL
 SAVE BUDGET ALL
END PERIOD

#Stressperiod Save Options

BEGIN PERIOD 287
 SAVE HEAD ALL
 SAVE BUDGET ALL
END PERIOD

#Stressperiod Save Options

BEGIN PERIOD 288
 SAVE HEAD ALL
 SAVE BUDGET ALL
END PERIOD

#Stressperiod Save Options

BEGIN PERIOD 289
 SAVE HEAD ALL
 SAVE BUDGET ALL
END PERIOD

#Stressperiod Save Options

BEGIN PERIOD 290
 SAVE HEAD ALL
 SAVE BUDGET ALL
END PERIOD

#Stressperiod Save Options

BEGIN PERIOD 291
 SAVE HEAD ALL
 SAVE BUDGET ALL
END PERIOD

#Stressperiod Save Options

BEGIN PERIOD 292
 SAVE HEAD ALL
 SAVE BUDGET ALL
END PERIOD

#Stressperiod Save Options

BEGIN PERIOD 293
 SAVE HEAD ALL
 SAVE BUDGET ALL
END PERIOD

#Stressperiod Save Options

BEGIN PERIOD 294
 SAVE HEAD ALL
 SAVE BUDGET ALL
END PERIOD

#Stressperiod Save Options

BEGIN PERIOD 295
 SAVE HEAD ALL
 SAVE BUDGET ALL
END PERIOD

#Stressperiod Save Options

BEGIN PERIOD 296
 SAVE HEAD ALL
 SAVE BUDGET ALL
END PERIOD

#Stressperiod Save Options

BEGIN PERIOD 297
 SAVE HEAD ALL
 SAVE BUDGET ALL
END PERIOD

#Stressperiod Save Options

BEGIN PERIOD 298
 SAVE HEAD ALL
 SAVE BUDGET ALL
END PERIOD

#Stressperiod Save Options

BEGIN PERIOD 299
 SAVE HEAD ALL
 SAVE BUDGET ALL
END PERIOD

#Stressperiod Save Options

BEGIN PERIOD 300
 SAVE HEAD ALL
 SAVE BUDGET ALL
END PERIOD

#Stressperiod Save Options

BEGIN PERIOD 301
 SAVE HEAD ALL
 SAVE BUDGET ALL
END PERIOD

#Stressperiod Save Options

BEGIN PERIOD 302
 SAVE HEAD ALL
 SAVE BUDGET ALL
END PERIOD

#Stressperiod Save Options

BEGIN PERIOD 303
 SAVE HEAD ALL
 SAVE BUDGET ALL
END PERIOD

#Stressperiod Save Options

BEGIN PERIOD 304
 SAVE HEAD ALL
 SAVE BUDGET ALL
END PERIOD

#Stressperiod Save Options

BEGIN PERIOD 305
 SAVE HEAD ALL
 SAVE BUDGET ALL
END PERIOD

#Stressperiod Save Options

BEGIN PERIOD 306
 SAVE HEAD ALL
 SAVE BUDGET ALL
END PERIOD

#Stressperiod Save Options

BEGIN PERIOD 307
 SAVE HEAD ALL
 SAVE BUDGET ALL
END PERIOD

#Stressperiod Save Options

BEGIN PERIOD 308
 SAVE HEAD ALL
 SAVE BUDGET ALL
END PERIOD

#Stressperiod Save Options

BEGIN PERIOD 309
 SAVE HEAD ALL
 SAVE BUDGET ALL
END PERIOD

#Stressperiod Save Options

BEGIN PERIOD 310
 SAVE HEAD ALL
 SAVE BUDGET ALL
END PERIOD

#Stressperiod Save Options

BEGIN PERIOD 311
 SAVE HEAD ALL
 SAVE BUDGET ALL
END PERIOD

#Stressperiod Save Options

BEGIN PERIOD 312
 SAVE HEAD ALL
 SAVE BUDGET ALL
END PERIOD

#Stressperiod Save Options

BEGIN PERIOD 313
 SAVE HEAD ALL
 SAVE BUDGET ALL
END PERIOD

#Stressperiod Save Options

BEGIN PERIOD 314
 SAVE HEAD ALL
 SAVE BUDGET ALL
END PERIOD

#Stressperiod Save Options

BEGIN PERIOD 315
 SAVE HEAD ALL
 SAVE BUDGET ALL
END PERIOD

#Stressperiod Save Options

BEGIN PERIOD 316
 SAVE HEAD ALL
 SAVE BUDGET ALL
END PERIOD

#Stressperiod Save Options

BEGIN PERIOD 317
 SAVE HEAD ALL
 SAVE BUDGET ALL
END PERIOD

#Stressperiod Save Options

BEGIN PERIOD 318
 SAVE HEAD ALL
 SAVE BUDGET ALL
END PERIOD

#Stressperiod Save Options

BEGIN PERIOD 319
 SAVE HEAD ALL
 SAVE BUDGET ALL
END PERIOD

#Stressperiod Save Options

BEGIN PERIOD 320
 SAVE HEAD ALL
 SAVE BUDGET ALL
END PERIOD

#Stressperiod Save Options

BEGIN PERIOD 321
 SAVE HEAD ALL
 SAVE BUDGET ALL
END PERIOD

#Stressperiod Save Options

BEGIN PERIOD 322
 SAVE HEAD ALL
 SAVE BUDGET ALL
END PERIOD

#Stressperiod Save Options

BEGIN PERIOD 323
 SAVE HEAD ALL
 SAVE BUDGET ALL
END PERIOD

#Stressperiod Save Options

BEGIN PERIOD 324
 SAVE HEAD ALL
 SAVE BUDGET ALL
END PERIOD

#Stressperiod Save Options

BEGIN PERIOD 325
 SAVE HEAD ALL
 SAVE BUDGET ALL
END PERIOD

#Stressperiod Save Options

BEGIN PERIOD 326
 SAVE HEAD ALL
 SAVE BUDGET ALL
END PERIOD

#Stressperiod Save Options

BEGIN PERIOD 327
 SAVE HEAD ALL
 SAVE BUDGET ALL
END PERIOD

#Stressperiod Save Options

BEGIN PERIOD 328
 SAVE HEAD ALL
 SAVE BUDGET ALL
END PERIOD

#Stressperiod Save Options

BEGIN PERIOD 329
 SAVE HEAD ALL
 SAVE BUDGET ALL
END PERIOD

#Stressperiod Save Options

BEGIN PERIOD 330
 SAVE HEAD ALL
 SAVE BUDGET ALL
END PERIOD

#Stressperiod Save Options

BEGIN PERIOD 331
 SAVE HEAD ALL
 SAVE BUDGET ALL
END PERIOD

#Stressperiod Save Options

BEGIN PERIOD 332
 SAVE HEAD ALL
 SAVE BUDGET ALL
END PERIOD

#Stressperiod Save Options

BEGIN PERIOD 333
 SAVE HEAD ALL
 SAVE BUDGET ALL
END PERIOD

#Stressperiod Save Options

BEGIN PERIOD 334
 SAVE HEAD ALL
 SAVE BUDGET ALL
END PERIOD

#Stressperiod Save Options

BEGIN PERIOD 335
 SAVE HEAD ALL
 SAVE BUDGET ALL
END PERIOD

#Stressperiod Save Options

BEGIN PERIOD 336
 SAVE HEAD ALL
 SAVE BUDGET ALL