BEGIN OPTIONS
END OPTIONS

BEGIN DIMENSIONS
  MAXBOUND 2
END DIMENSIONS

BEGIN PERIOD 1
  1 2 1   0.0
  1 3 1   0.0
END PERIOD