# NPF6 File Generated by iMOD [V5_0 X64 Optimized]

#General Options

BEGIN OPTIONS
 ALTERNATIVE_CELL_AVERAGING AMT-HMK
 THICKSTRT
END OPTIONS

#Geology Options

BEGIN GRIDDATA
 ICELLTYPE LAYERED
  CONSTANT 0
  CONSTANT 0
  CONSTANT 0
 K LAYERED
  CONSTANT 0.5000000E-02
  CONSTANT 0.1000000E-03
  CONSTANT 0.1000000E-03
 K33 LAYERED
  OPEN/CLOSE .\GWF_1\MODELINPUT\NPF\K33_L1.ARR FACTOR 1.0D0 IPRN -1
  OPEN/CLOSE .\GWF_1\MODELINPUT\NPF\K33_L2.ARR FACTOR 1.0D0 IPRN -1
  OPEN/CLOSE .\GWF_1\MODELINPUT\NPF\K33_L3.ARR FACTOR 1.0D0 IPRN -1
END GRIDDATA
