# DIS6 File Generated by iMOD [V5_0 X64 Optimized]

General Options

BEGIN OPTIONS
 LENGTH_UNITS METERS
 XORIGIN 0.000
 YORIGIN 0.000
 ANGROT 0.0
END OPTIONS

#Model Dimensions

BEGIN DIMENSIONS
 NLAY 3
 NROW 4
 NCOL 1
END DIMENSIONS

#Cell Sizes

BEGIN GRIDDATA
 DELR
  CONSTANT 0.1000000E+03
 DELC
  CONSTANT 0.1000000E+03

#Vertical Configuration

TOP
  CONSTANT 0.0000000E+00
BOTM LAYERED
  CONSTANT -0.1000000E+03
  CONSTANT -0.2000000E+03
  CONSTANT -0.3000000E+03

#Boundary Settings

IDOMAIN LAYERED
  OPEN/CLOSE .\GWF_1\MODELINPUT\DIS6\IBOUND_L1.ARR FACTOR 1 IPRN -1
  OPEN/CLOSE .\GWF_1\MODELINPUT\DIS6\IBOUND_L2.ARR FACTOR 1 IPRN -1
  OPEN/CLOSE .\GWF_1\MODELINPUT\DIS6\IBOUND_L3.ARR FACTOR 1 IPRN -1
END GRIDDATA
