# IC6 File Generated by iMOD [V5_0 X64 Optimized]

#General Options

BEGIN OPTIONS
END OPTIONS

#Initial Head Data

BEGIN GRIDDATA
 STRT LAYERED
  CONSTANT -0.1000000E+01
  CONSTANT 0.0000000E+00
  CONSTANT 0.0000000E+00
END GRIDDATA
