# STO6 File Generated by iMOD [V5_0 X64 Optimized]

#General Options

BEGIN OPTIONS
 SAVE_FLOWS
 STORAGECOEFFICIENT
END OPTIONS

#Geology Options

BEGIN GRIDDATA
 ICONVERT LAYERED
  CONSTANT 0
  CONSTANT 0
  CONSTANT 0
 SS LAYERED
  CONSTANT 0.1000000E-04
  CONSTANT 0.1000000E-04
  CONSTANT 0.1000000E-04
 SY LAYERED
  OPEN/CLOSE .\GWF_1\MODELINPUT\STO\SY_L1.ARR FACTOR 1.0D0 IPRN -1
  OPEN/CLOSE .\GWF_1\MODELINPUT\STO\SY_L2.ARR FACTOR 1.0D0 IPRN -1
  OPEN/CLOSE .\GWF_1\MODELINPUT\STO\SY_L3.ARR FACTOR 1.0D0 IPRN -1
END GRIDDATA

#Time Storage Options

BEGIN PERIOD 1
 TRANSIENT
END PERIOD
BEGIN PERIOD 2
 TRANSIENT
END PERIOD
BEGIN PERIOD 3
 TRANSIENT
END PERIOD
BEGIN PERIOD 4
 TRANSIENT
END PERIOD
BEGIN PERIOD 5
 TRANSIENT
END PERIOD
BEGIN PERIOD 6
 TRANSIENT
END PERIOD
BEGIN PERIOD 7
 TRANSIENT
END PERIOD
BEGIN PERIOD 8
 TRANSIENT
END PERIOD
BEGIN PERIOD 9
 TRANSIENT
END PERIOD
BEGIN PERIOD 10
 TRANSIENT
END PERIOD
BEGIN PERIOD 11
 TRANSIENT
END PERIOD
BEGIN PERIOD 12
 TRANSIENT
END PERIOD
BEGIN PERIOD 13
 TRANSIENT
END PERIOD
BEGIN PERIOD 14
 TRANSIENT
END PERIOD
BEGIN PERIOD 15
 TRANSIENT
END PERIOD
BEGIN PERIOD 16
 TRANSIENT
END PERIOD
BEGIN PERIOD 17
 TRANSIENT
END PERIOD
BEGIN PERIOD 18
 TRANSIENT
END PERIOD
BEGIN PERIOD 19
 TRANSIENT
END PERIOD
BEGIN PERIOD 20
 TRANSIENT
END PERIOD
BEGIN PERIOD 21
 TRANSIENT
END PERIOD
BEGIN PERIOD 22
 TRANSIENT
END PERIOD
BEGIN PERIOD 23
 TRANSIENT
END PERIOD
BEGIN PERIOD 24
 TRANSIENT
END PERIOD
BEGIN PERIOD 25
 TRANSIENT
END PERIOD
BEGIN PERIOD 26
 TRANSIENT
END PERIOD
BEGIN PERIOD 27
 TRANSIENT
END PERIOD
BEGIN PERIOD 28
 TRANSIENT
END PERIOD
BEGIN PERIOD 29
 TRANSIENT
END PERIOD
BEGIN PERIOD 30
 TRANSIENT
END PERIOD
BEGIN PERIOD 31
 TRANSIENT
END PERIOD
BEGIN PERIOD 32
 TRANSIENT
END PERIOD
BEGIN PERIOD 33
 TRANSIENT
END PERIOD
BEGIN PERIOD 34
 TRANSIENT
END PERIOD
BEGIN PERIOD 35
 TRANSIENT
END PERIOD
BEGIN PERIOD 36
 TRANSIENT
END PERIOD
BEGIN PERIOD 37
 TRANSIENT
END PERIOD
BEGIN PERIOD 38
 TRANSIENT
END PERIOD
BEGIN PERIOD 39
 TRANSIENT
END PERIOD
BEGIN PERIOD 40
 TRANSIENT
END PERIOD
BEGIN PERIOD 41
 TRANSIENT
END PERIOD
BEGIN PERIOD 42
 TRANSIENT
END PERIOD
BEGIN PERIOD 43
 TRANSIENT
END PERIOD
BEGIN PERIOD 44
 TRANSIENT
END PERIOD
BEGIN PERIOD 45
 TRANSIENT
END PERIOD
BEGIN PERIOD 46
 TRANSIENT
END PERIOD
BEGIN PERIOD 47
 TRANSIENT
END PERIOD
BEGIN PERIOD 48
 TRANSIENT
END PERIOD
BEGIN PERIOD 49
 TRANSIENT
END PERIOD
BEGIN PERIOD 50
 TRANSIENT
END PERIOD
BEGIN PERIOD 51
 TRANSIENT
END PERIOD
BEGIN PERIOD 52
 TRANSIENT
END PERIOD
BEGIN PERIOD 53
 TRANSIENT
END PERIOD
BEGIN PERIOD 54
 TRANSIENT
END PERIOD
BEGIN PERIOD 55
 TRANSIENT
END PERIOD
BEGIN PERIOD 56
 TRANSIENT
END PERIOD
BEGIN PERIOD 57
 TRANSIENT
END PERIOD
BEGIN PERIOD 58
 TRANSIENT
END PERIOD
BEGIN PERIOD 59
 TRANSIENT
END PERIOD
BEGIN PERIOD 60
 TRANSIENT
END PERIOD
BEGIN PERIOD 61
 TRANSIENT
END PERIOD
BEGIN PERIOD 62
 TRANSIENT
END PERIOD
BEGIN PERIOD 63
 TRANSIENT
END PERIOD
BEGIN PERIOD 64
 TRANSIENT
END PERIOD
BEGIN PERIOD 65
 TRANSIENT
END PERIOD
BEGIN PERIOD 66
 TRANSIENT
END PERIOD
BEGIN PERIOD 67
 TRANSIENT
END PERIOD
BEGIN PERIOD 68
 TRANSIENT
END PERIOD
BEGIN PERIOD 69
 TRANSIENT
END PERIOD
BEGIN PERIOD 70
 TRANSIENT
END PERIOD
BEGIN PERIOD 71
 TRANSIENT
END PERIOD
BEGIN PERIOD 72
 TRANSIENT
END PERIOD
BEGIN PERIOD 73
 TRANSIENT
END PERIOD
BEGIN PERIOD 74
 TRANSIENT
END PERIOD
BEGIN PERIOD 75
 TRANSIENT
END PERIOD
BEGIN PERIOD 76
 TRANSIENT
END PERIOD
BEGIN PERIOD 77
 TRANSIENT
END PERIOD
BEGIN PERIOD 78
 TRANSIENT
END PERIOD
BEGIN PERIOD 79
 TRANSIENT
END PERIOD
BEGIN PERIOD 80
 TRANSIENT
END PERIOD
BEGIN PERIOD 81
 TRANSIENT
END PERIOD
BEGIN PERIOD 82
 TRANSIENT
END PERIOD
BEGIN PERIOD 83
 TRANSIENT
END PERIOD
BEGIN PERIOD 84
 TRANSIENT
END PERIOD
BEGIN PERIOD 85
 TRANSIENT
END PERIOD
BEGIN PERIOD 86
 TRANSIENT
END PERIOD
BEGIN PERIOD 87
 TRANSIENT
END PERIOD
BEGIN PERIOD 88
 TRANSIENT
END PERIOD
BEGIN PERIOD 89
 TRANSIENT
END PERIOD
BEGIN PERIOD 90
 TRANSIENT
END PERIOD
BEGIN PERIOD 91
 TRANSIENT
END PERIOD
BEGIN PERIOD 92
 TRANSIENT
END PERIOD
BEGIN PERIOD 93
 TRANSIENT
END PERIOD
BEGIN PERIOD 94
 TRANSIENT
END PERIOD
BEGIN PERIOD 95
 TRANSIENT
END PERIOD
BEGIN PERIOD 96
 TRANSIENT
END PERIOD
BEGIN PERIOD 97
 TRANSIENT
END PERIOD
BEGIN PERIOD 98
 TRANSIENT
END PERIOD
BEGIN PERIOD 99
 TRANSIENT
END PERIOD
BEGIN PERIOD 100
 TRANSIENT
END PERIOD
BEGIN PERIOD 101
 TRANSIENT
END PERIOD
BEGIN PERIOD 102
 TRANSIENT
END PERIOD
BEGIN PERIOD 103
 TRANSIENT
END PERIOD
BEGIN PERIOD 104
 TRANSIENT
END PERIOD
BEGIN PERIOD 105
 TRANSIENT
END PERIOD
BEGIN PERIOD 106
 TRANSIENT
END PERIOD
BEGIN PERIOD 107
 TRANSIENT
END PERIOD
BEGIN PERIOD 108
 TRANSIENT
END PERIOD
BEGIN PERIOD 109
 TRANSIENT
END PERIOD
BEGIN PERIOD 110
 TRANSIENT
END PERIOD
BEGIN PERIOD 111
 TRANSIENT
END PERIOD
BEGIN PERIOD 112
 TRANSIENT
END PERIOD
BEGIN PERIOD 113
 TRANSIENT
END PERIOD
BEGIN PERIOD 114
 TRANSIENT
END PERIOD
BEGIN PERIOD 115
 TRANSIENT
END PERIOD
BEGIN PERIOD 116
 TRANSIENT
END PERIOD
BEGIN PERIOD 117
 TRANSIENT
END PERIOD
BEGIN PERIOD 118
 TRANSIENT
END PERIOD
BEGIN PERIOD 119
 TRANSIENT
END PERIOD
BEGIN PERIOD 120
 TRANSIENT
END PERIOD
BEGIN PERIOD 121
 TRANSIENT
END PERIOD
BEGIN PERIOD 122
 TRANSIENT
END PERIOD
BEGIN PERIOD 123
 TRANSIENT
END PERIOD
BEGIN PERIOD 124
 TRANSIENT
END PERIOD
BEGIN PERIOD 125
 TRANSIENT
END PERIOD
BEGIN PERIOD 126
 TRANSIENT
END PERIOD
BEGIN PERIOD 127
 TRANSIENT
END PERIOD
BEGIN PERIOD 128
 TRANSIENT
END PERIOD
BEGIN PERIOD 129
 TRANSIENT
END PERIOD
BEGIN PERIOD 130
 TRANSIENT
END PERIOD
BEGIN PERIOD 131
 TRANSIENT
END PERIOD
BEGIN PERIOD 132
 TRANSIENT
END PERIOD
BEGIN PERIOD 133
 TRANSIENT
END PERIOD
BEGIN PERIOD 134
 TRANSIENT
END PERIOD
BEGIN PERIOD 135
 TRANSIENT
END PERIOD
BEGIN PERIOD 136
 TRANSIENT
END PERIOD
BEGIN PERIOD 137
 TRANSIENT
END PERIOD
BEGIN PERIOD 138
 TRANSIENT
END PERIOD
BEGIN PERIOD 139
 TRANSIENT
END PERIOD
BEGIN PERIOD 140
 TRANSIENT
END PERIOD
BEGIN PERIOD 141
 TRANSIENT
END PERIOD
BEGIN PERIOD 142
 TRANSIENT
END PERIOD
BEGIN PERIOD 143
 TRANSIENT
END PERIOD
BEGIN PERIOD 144
 TRANSIENT
END PERIOD
BEGIN PERIOD 145
 TRANSIENT
END PERIOD
BEGIN PERIOD 146
 TRANSIENT
END PERIOD
BEGIN PERIOD 147
 TRANSIENT
END PERIOD
BEGIN PERIOD 148
 TRANSIENT
END PERIOD
BEGIN PERIOD 149
 TRANSIENT
END PERIOD
BEGIN PERIOD 150
 TRANSIENT
END PERIOD
BEGIN PERIOD 151
 TRANSIENT
END PERIOD
BEGIN PERIOD 152
 TRANSIENT
END PERIOD
BEGIN PERIOD 153
 TRANSIENT
END PERIOD
BEGIN PERIOD 154
 TRANSIENT
END PERIOD
BEGIN PERIOD 155
 TRANSIENT
END PERIOD
BEGIN PERIOD 156
 TRANSIENT
END PERIOD
BEGIN PERIOD 157
 TRANSIENT
END PERIOD
BEGIN PERIOD 158
 TRANSIENT
END PERIOD
BEGIN PERIOD 159
 TRANSIENT
END PERIOD
BEGIN PERIOD 160
 TRANSIENT
END PERIOD
BEGIN PERIOD 161
 TRANSIENT
END PERIOD
BEGIN PERIOD 162
 TRANSIENT
END PERIOD
BEGIN PERIOD 163
 TRANSIENT
END PERIOD
BEGIN PERIOD 164
 TRANSIENT
END PERIOD
BEGIN PERIOD 165
 TRANSIENT
END PERIOD
BEGIN PERIOD 166
 TRANSIENT
END PERIOD
BEGIN PERIOD 167
 TRANSIENT
END PERIOD
BEGIN PERIOD 168
 TRANSIENT
END PERIOD
BEGIN PERIOD 169
 TRANSIENT
END PERIOD
BEGIN PERIOD 170
 TRANSIENT
END PERIOD
BEGIN PERIOD 171
 TRANSIENT
END PERIOD
BEGIN PERIOD 172
 TRANSIENT
END PERIOD
BEGIN PERIOD 173
 TRANSIENT
END PERIOD
BEGIN PERIOD 174
 TRANSIENT
END PERIOD
BEGIN PERIOD 175
 TRANSIENT
END PERIOD
BEGIN PERIOD 176
 TRANSIENT
END PERIOD
BEGIN PERIOD 177
 TRANSIENT
END PERIOD
BEGIN PERIOD 178
 TRANSIENT
END PERIOD
BEGIN PERIOD 179
 TRANSIENT
END PERIOD
BEGIN PERIOD 180
 TRANSIENT
END PERIOD
BEGIN PERIOD 181
 TRANSIENT
END PERIOD
BEGIN PERIOD 182
 TRANSIENT
END PERIOD
BEGIN PERIOD 183
 TRANSIENT
END PERIOD
BEGIN PERIOD 184
 TRANSIENT
END PERIOD
BEGIN PERIOD 185
 TRANSIENT
END PERIOD
BEGIN PERIOD 186
 TRANSIENT
END PERIOD
BEGIN PERIOD 187
 TRANSIENT
END PERIOD
BEGIN PERIOD 188
 TRANSIENT
END PERIOD
BEGIN PERIOD 189
 TRANSIENT
END PERIOD
BEGIN PERIOD 190
 TRANSIENT
END PERIOD
BEGIN PERIOD 191
 TRANSIENT
END PERIOD
BEGIN PERIOD 192
 TRANSIENT
END PERIOD
BEGIN PERIOD 193
 TRANSIENT
END PERIOD
BEGIN PERIOD 194
 TRANSIENT
END PERIOD
BEGIN PERIOD 195
 TRANSIENT
END PERIOD
BEGIN PERIOD 196
 TRANSIENT
END PERIOD
BEGIN PERIOD 197
 TRANSIENT
END PERIOD
BEGIN PERIOD 198
 TRANSIENT
END PERIOD
BEGIN PERIOD 199
 TRANSIENT
END PERIOD
BEGIN PERIOD 200
 TRANSIENT
END PERIOD
BEGIN PERIOD 201
 TRANSIENT
END PERIOD
BEGIN PERIOD 202
 TRANSIENT
END PERIOD
BEGIN PERIOD 203
 TRANSIENT
END PERIOD
BEGIN PERIOD 204
 TRANSIENT
END PERIOD
BEGIN PERIOD 205
 TRANSIENT
END PERIOD
BEGIN PERIOD 206
 TRANSIENT
END PERIOD
BEGIN PERIOD 207
 TRANSIENT
END PERIOD
BEGIN PERIOD 208
 TRANSIENT
END PERIOD
BEGIN PERIOD 209
 TRANSIENT
END PERIOD
BEGIN PERIOD 210
 TRANSIENT
END PERIOD
BEGIN PERIOD 211
 TRANSIENT
END PERIOD
BEGIN PERIOD 212
 TRANSIENT
END PERIOD
BEGIN PERIOD 213
 TRANSIENT
END PERIOD
BEGIN PERIOD 214
 TRANSIENT
END PERIOD
BEGIN PERIOD 215
 TRANSIENT
END PERIOD
BEGIN PERIOD 216
 TRANSIENT
END PERIOD
BEGIN PERIOD 217
 TRANSIENT
END PERIOD
BEGIN PERIOD 218
 TRANSIENT
END PERIOD
BEGIN PERIOD 219
 TRANSIENT
END PERIOD
BEGIN PERIOD 220
 TRANSIENT
END PERIOD
BEGIN PERIOD 221
 TRANSIENT
END PERIOD
BEGIN PERIOD 222
 TRANSIENT
END PERIOD
BEGIN PERIOD 223
 TRANSIENT
END PERIOD
BEGIN PERIOD 224
 TRANSIENT
END PERIOD
BEGIN PERIOD 225
 TRANSIENT
END PERIOD
BEGIN PERIOD 226
 TRANSIENT
END PERIOD
BEGIN PERIOD 227
 TRANSIENT
END PERIOD
BEGIN PERIOD 228
 TRANSIENT
END PERIOD
BEGIN PERIOD 229
 TRANSIENT
END PERIOD
BEGIN PERIOD 230
 TRANSIENT
END PERIOD
BEGIN PERIOD 231
 TRANSIENT
END PERIOD
BEGIN PERIOD 232
 TRANSIENT
END PERIOD
BEGIN PERIOD 233
 TRANSIENT
END PERIOD
BEGIN PERIOD 234
 TRANSIENT
END PERIOD
BEGIN PERIOD 235
 TRANSIENT
END PERIOD
BEGIN PERIOD 236
 TRANSIENT
END PERIOD
BEGIN PERIOD 237
 TRANSIENT
END PERIOD
BEGIN PERIOD 238
 TRANSIENT
END PERIOD
BEGIN PERIOD 239
 TRANSIENT
END PERIOD
BEGIN PERIOD 240
 TRANSIENT
END PERIOD
BEGIN PERIOD 241
 TRANSIENT
END PERIOD
BEGIN PERIOD 242
 TRANSIENT
END PERIOD
BEGIN PERIOD 243
 TRANSIENT
END PERIOD
BEGIN PERIOD 244
 TRANSIENT
END PERIOD
BEGIN PERIOD 245
 TRANSIENT
END PERIOD
BEGIN PERIOD 246
 TRANSIENT
END PERIOD
BEGIN PERIOD 247
 TRANSIENT
END PERIOD
BEGIN PERIOD 248
 TRANSIENT
END PERIOD
BEGIN PERIOD 249
 TRANSIENT
END PERIOD
BEGIN PERIOD 250
 TRANSIENT
END PERIOD
BEGIN PERIOD 251
 TRANSIENT
END PERIOD
BEGIN PERIOD 252
 TRANSIENT
END PERIOD
BEGIN PERIOD 253
 TRANSIENT
END PERIOD
BEGIN PERIOD 254
 TRANSIENT
END PERIOD
BEGIN PERIOD 255
 TRANSIENT
END PERIOD
BEGIN PERIOD 256
 TRANSIENT
END PERIOD
BEGIN PERIOD 257
 TRANSIENT
END PERIOD
BEGIN PERIOD 258
 TRANSIENT
END PERIOD
BEGIN PERIOD 259
 TRANSIENT
END PERIOD
BEGIN PERIOD 260
 TRANSIENT
END PERIOD
BEGIN PERIOD 261
 TRANSIENT
END PERIOD
BEGIN PERIOD 262
 TRANSIENT
END PERIOD
BEGIN PERIOD 263
 TRANSIENT
END PERIOD
BEGIN PERIOD 264
 TRANSIENT
END PERIOD
BEGIN PERIOD 265
 TRANSIENT
END PERIOD
BEGIN PERIOD 266
 TRANSIENT
END PERIOD
BEGIN PERIOD 267
 TRANSIENT
END PERIOD
BEGIN PERIOD 268
 TRANSIENT
END PERIOD
BEGIN PERIOD 269
 TRANSIENT
END PERIOD
BEGIN PERIOD 270
 TRANSIENT
END PERIOD
BEGIN PERIOD 271
 TRANSIENT
END PERIOD
BEGIN PERIOD 272
 TRANSIENT
END PERIOD
BEGIN PERIOD 273
 TRANSIENT
END PERIOD
BEGIN PERIOD 274
 TRANSIENT
END PERIOD
BEGIN PERIOD 275
 TRANSIENT
END PERIOD
BEGIN PERIOD 276
 TRANSIENT
END PERIOD
BEGIN PERIOD 277
 TRANSIENT
END PERIOD
BEGIN PERIOD 278
 TRANSIENT
END PERIOD
BEGIN PERIOD 279
 TRANSIENT
END PERIOD
BEGIN PERIOD 280
 TRANSIENT
END PERIOD
BEGIN PERIOD 281
 TRANSIENT
END PERIOD
BEGIN PERIOD 282
 TRANSIENT
END PERIOD
BEGIN PERIOD 283
 TRANSIENT
END PERIOD
BEGIN PERIOD 284
 TRANSIENT
END PERIOD
BEGIN PERIOD 285
 TRANSIENT
END PERIOD
BEGIN PERIOD 286
 TRANSIENT
END PERIOD
BEGIN PERIOD 287
 TRANSIENT
END PERIOD
BEGIN PERIOD 288
 TRANSIENT
END PERIOD
BEGIN PERIOD 289
 TRANSIENT
END PERIOD
BEGIN PERIOD 290
 TRANSIENT
END PERIOD
BEGIN PERIOD 291
 TRANSIENT
END PERIOD
BEGIN PERIOD 292
 TRANSIENT
END PERIOD
BEGIN PERIOD 293
 TRANSIENT
END PERIOD
BEGIN PERIOD 294
 TRANSIENT
END PERIOD
BEGIN PERIOD 295
 TRANSIENT
END PERIOD
BEGIN PERIOD 296
 TRANSIENT
END PERIOD
BEGIN PERIOD 297
 TRANSIENT
END PERIOD
BEGIN PERIOD 298
 TRANSIENT
END PERIOD
BEGIN PERIOD 299
 TRANSIENT
END PERIOD
BEGIN PERIOD 300
 TRANSIENT
END PERIOD
BEGIN PERIOD 301
 TRANSIENT
END PERIOD
BEGIN PERIOD 302
 TRANSIENT
END PERIOD
BEGIN PERIOD 303
 TRANSIENT
END PERIOD
BEGIN PERIOD 304
 TRANSIENT
END PERIOD
BEGIN PERIOD 305
 TRANSIENT
END PERIOD
BEGIN PERIOD 306
 TRANSIENT
END PERIOD
BEGIN PERIOD 307
 TRANSIENT
END PERIOD
BEGIN PERIOD 308
 TRANSIENT
END PERIOD
BEGIN PERIOD 309
 TRANSIENT
END PERIOD
BEGIN PERIOD 310
 TRANSIENT
END PERIOD
BEGIN PERIOD 311
 TRANSIENT
END PERIOD
BEGIN PERIOD 312
 TRANSIENT
END PERIOD
BEGIN PERIOD 313
 TRANSIENT
END PERIOD
BEGIN PERIOD 314
 TRANSIENT
END PERIOD
BEGIN PERIOD 315
 TRANSIENT
END PERIOD
BEGIN PERIOD 316
 TRANSIENT
END PERIOD
BEGIN PERIOD 317
 TRANSIENT
END PERIOD
BEGIN PERIOD 318
 TRANSIENT
END PERIOD
BEGIN PERIOD 319
 TRANSIENT
END PERIOD
BEGIN PERIOD 320
 TRANSIENT
END PERIOD
BEGIN PERIOD 321
 TRANSIENT
END PERIOD
BEGIN PERIOD 322
 TRANSIENT
END PERIOD
BEGIN PERIOD 323
 TRANSIENT
END PERIOD
BEGIN PERIOD 324
 TRANSIENT
END PERIOD
BEGIN PERIOD 325
 TRANSIENT
END PERIOD
BEGIN PERIOD 326
 TRANSIENT
END PERIOD
BEGIN PERIOD 327
 TRANSIENT
END PERIOD
BEGIN PERIOD 328
 TRANSIENT
END PERIOD
BEGIN PERIOD 329
 TRANSIENT
END PERIOD
BEGIN PERIOD 330
 TRANSIENT
END PERIOD
BEGIN PERIOD 331
 TRANSIENT
END PERIOD
BEGIN PERIOD 332
 TRANSIENT
END PERIOD
BEGIN PERIOD 333
 TRANSIENT
END PERIOD
BEGIN PERIOD 334
 TRANSIENT
END PERIOD
BEGIN PERIOD 335
 TRANSIENT
END PERIOD
BEGIN PERIOD 336
 TRANSIENT
END PERIOD
BEGIN PERIOD 337
 TRANSIENT
END PERIOD
BEGIN PERIOD 338
 TRANSIENT
END PERIOD
BEGIN PERIOD 339
 TRANSIENT
END PERIOD
BEGIN PERIOD 340
 TRANSIENT
END PERIOD
BEGIN PERIOD 341
 TRANSIENT
END PERIOD
BEGIN PERIOD 342
 TRANSIENT
END PERIOD
BEGIN PERIOD 343
 TRANSIENT
END PERIOD
BEGIN PERIOD 344
 TRANSIENT
END PERIOD
BEGIN PERIOD 345
 TRANSIENT
END PERIOD
BEGIN PERIOD 346
 TRANSIENT
END PERIOD
BEGIN PERIOD 347
 TRANSIENT
END PERIOD
BEGIN PERIOD 348
 TRANSIENT
END PERIOD
BEGIN PERIOD 349
 TRANSIENT
END PERIOD
BEGIN PERIOD 350
 TRANSIENT
END PERIOD
BEGIN PERIOD 351
 TRANSIENT
END PERIOD
BEGIN PERIOD 352
 TRANSIENT
END PERIOD
BEGIN PERIOD 353
 TRANSIENT
END PERIOD
BEGIN PERIOD 354
 TRANSIENT
END PERIOD
BEGIN PERIOD 355
 TRANSIENT
END PERIOD
BEGIN PERIOD 356
 TRANSIENT
END PERIOD
BEGIN PERIOD 357
 TRANSIENT
END PERIOD
BEGIN PERIOD 358
 TRANSIENT
END PERIOD
BEGIN PERIOD 359
 TRANSIENT
END PERIOD
BEGIN PERIOD 360
 TRANSIENT
END PERIOD
BEGIN PERIOD 361
 TRANSIENT
END PERIOD
BEGIN PERIOD 362
 TRANSIENT
END PERIOD
BEGIN PERIOD 363
 TRANSIENT
END PERIOD
BEGIN PERIOD 364
 TRANSIENT
END PERIOD
BEGIN PERIOD 365
 TRANSIENT
END PERIOD
BEGIN PERIOD 366
 TRANSIENT
END PERIOD
BEGIN PERIOD 367
 TRANSIENT
END PERIOD
BEGIN PERIOD 368
 TRANSIENT
END PERIOD
BEGIN PERIOD 369
 TRANSIENT
END PERIOD
BEGIN PERIOD 370
 TRANSIENT
END PERIOD
BEGIN PERIOD 371
 TRANSIENT
END PERIOD
BEGIN PERIOD 372
 TRANSIENT
END PERIOD
BEGIN PERIOD 373
 TRANSIENT
END PERIOD
BEGIN PERIOD 374
 TRANSIENT
END PERIOD
BEGIN PERIOD 375
 TRANSIENT
END PERIOD
BEGIN PERIOD 376
 TRANSIENT
END PERIOD
BEGIN PERIOD 377
 TRANSIENT
END PERIOD
BEGIN PERIOD 378
 TRANSIENT
END PERIOD
BEGIN PERIOD 379
 TRANSIENT
END PERIOD
BEGIN PERIOD 380
 TRANSIENT
END PERIOD
BEGIN PERIOD 381
 TRANSIENT
END PERIOD
BEGIN PERIOD 382
 TRANSIENT
END PERIOD
BEGIN PERIOD 383
 TRANSIENT
END PERIOD
BEGIN PERIOD 384
 TRANSIENT
END PERIOD
BEGIN PERIOD 385
 TRANSIENT
END PERIOD
BEGIN PERIOD 386
 TRANSIENT
END PERIOD
BEGIN PERIOD 387
 TRANSIENT
END PERIOD
BEGIN PERIOD 388
 TRANSIENT
END PERIOD
BEGIN PERIOD 389
 TRANSIENT
END PERIOD
BEGIN PERIOD 390
 TRANSIENT
END PERIOD
BEGIN PERIOD 391
 TRANSIENT
END PERIOD
BEGIN PERIOD 392
 TRANSIENT
END PERIOD
BEGIN PERIOD 393
 TRANSIENT
END PERIOD
BEGIN PERIOD 394
 TRANSIENT
END PERIOD
BEGIN PERIOD 395
 TRANSIENT
END PERIOD
BEGIN PERIOD 396
 TRANSIENT
END PERIOD
BEGIN PERIOD 397
 TRANSIENT
END PERIOD
BEGIN PERIOD 398
 TRANSIENT
END PERIOD
BEGIN PERIOD 399
 TRANSIENT
END PERIOD
BEGIN PERIOD 400
 TRANSIENT
END PERIOD
BEGIN PERIOD 401
 TRANSIENT
END PERIOD
BEGIN PERIOD 402
 TRANSIENT
END PERIOD
BEGIN PERIOD 403
 TRANSIENT
END PERIOD
BEGIN PERIOD 404
 TRANSIENT
END PERIOD
BEGIN PERIOD 405
 TRANSIENT
END PERIOD
BEGIN PERIOD 406
 TRANSIENT
END PERIOD
BEGIN PERIOD 407
 TRANSIENT
END PERIOD
BEGIN PERIOD 408
 TRANSIENT
END PERIOD
BEGIN PERIOD 409
 TRANSIENT
END PERIOD
BEGIN PERIOD 410
 TRANSIENT
END PERIOD
BEGIN PERIOD 411
 TRANSIENT
END PERIOD
BEGIN PERIOD 412
 TRANSIENT
END PERIOD
BEGIN PERIOD 413
 TRANSIENT
END PERIOD
BEGIN PERIOD 414
 TRANSIENT
END PERIOD
BEGIN PERIOD 415
 TRANSIENT
END PERIOD
BEGIN PERIOD 416
 TRANSIENT
END PERIOD
BEGIN PERIOD 417
 TRANSIENT
END PERIOD
BEGIN PERIOD 418
 TRANSIENT
END PERIOD
BEGIN PERIOD 419
 TRANSIENT
END PERIOD
BEGIN PERIOD 420
 TRANSIENT
END PERIOD
BEGIN PERIOD 421
 TRANSIENT
END PERIOD
BEGIN PERIOD 422
 TRANSIENT
END PERIOD
BEGIN PERIOD 423
 TRANSIENT
END PERIOD
BEGIN PERIOD 424
 TRANSIENT
END PERIOD
BEGIN PERIOD 425
 TRANSIENT
END PERIOD
BEGIN PERIOD 426
 TRANSIENT
END PERIOD
BEGIN PERIOD 427
 TRANSIENT
END PERIOD
BEGIN PERIOD 428
 TRANSIENT
END PERIOD
BEGIN PERIOD 429
 TRANSIENT
END PERIOD
BEGIN PERIOD 430
 TRANSIENT
END PERIOD
BEGIN PERIOD 431
 TRANSIENT
END PERIOD
BEGIN PERIOD 432
 TRANSIENT
END PERIOD
BEGIN PERIOD 433
 TRANSIENT
END PERIOD
BEGIN PERIOD 434
 TRANSIENT
END PERIOD
BEGIN PERIOD 435
 TRANSIENT
END PERIOD
BEGIN PERIOD 436
 TRANSIENT
END PERIOD
BEGIN PERIOD 437
 TRANSIENT
END PERIOD
BEGIN PERIOD 438
 TRANSIENT
END PERIOD
BEGIN PERIOD 439
 TRANSIENT
END PERIOD
BEGIN PERIOD 440
 TRANSIENT
END PERIOD
BEGIN PERIOD 441
 TRANSIENT
END PERIOD
BEGIN PERIOD 442
 TRANSIENT
END PERIOD
BEGIN PERIOD 443
 TRANSIENT
END PERIOD
BEGIN PERIOD 444
 TRANSIENT
END PERIOD
BEGIN PERIOD 445
 TRANSIENT
END PERIOD
BEGIN PERIOD 446
 TRANSIENT
END PERIOD
BEGIN PERIOD 447
 TRANSIENT
END PERIOD
BEGIN PERIOD 448
 TRANSIENT
END PERIOD
BEGIN PERIOD 449
 TRANSIENT
END PERIOD
BEGIN PERIOD 450
 TRANSIENT
END PERIOD
BEGIN PERIOD 451
 TRANSIENT
END PERIOD
BEGIN PERIOD 452
 TRANSIENT
END PERIOD
BEGIN PERIOD 453
 TRANSIENT
END PERIOD
BEGIN PERIOD 454
 TRANSIENT
END PERIOD
BEGIN PERIOD 455
 TRANSIENT
END PERIOD
BEGIN PERIOD 456
 TRANSIENT
END PERIOD
BEGIN PERIOD 457
 TRANSIENT
END PERIOD
BEGIN PERIOD 458
 TRANSIENT
END PERIOD
BEGIN PERIOD 459
 TRANSIENT
END PERIOD
BEGIN PERIOD 460
 TRANSIENT
END PERIOD
BEGIN PERIOD 461
 TRANSIENT
END PERIOD
BEGIN PERIOD 462
 TRANSIENT
END PERIOD
BEGIN PERIOD 463
 TRANSIENT
END PERIOD
BEGIN PERIOD 464
 TRANSIENT
END PERIOD
BEGIN PERIOD 465
 TRANSIENT
END PERIOD
BEGIN PERIOD 466
 TRANSIENT
END PERIOD
BEGIN PERIOD 467
 TRANSIENT
END PERIOD
BEGIN PERIOD 468
 TRANSIENT
END PERIOD
BEGIN PERIOD 469
 TRANSIENT
END PERIOD
BEGIN PERIOD 470
 TRANSIENT
END PERIOD
BEGIN PERIOD 471
 TRANSIENT
END PERIOD
BEGIN PERIOD 472
 TRANSIENT
END PERIOD
BEGIN PERIOD 473
 TRANSIENT
END PERIOD
BEGIN PERIOD 474
 TRANSIENT
END PERIOD
BEGIN PERIOD 475
 TRANSIENT
END PERIOD
BEGIN PERIOD 476
 TRANSIENT
END PERIOD
BEGIN PERIOD 477
 TRANSIENT
END PERIOD
BEGIN PERIOD 478
 TRANSIENT
END PERIOD
BEGIN PERIOD 479
 TRANSIENT
END PERIOD
BEGIN PERIOD 480
 TRANSIENT
END PERIOD
BEGIN PERIOD 481
 TRANSIENT
END PERIOD
BEGIN PERIOD 482
 TRANSIENT
END PERIOD
BEGIN PERIOD 483
 TRANSIENT
END PERIOD
BEGIN PERIOD 484
 TRANSIENT
END PERIOD
BEGIN PERIOD 485
 TRANSIENT
END PERIOD
BEGIN PERIOD 486
 TRANSIENT
END PERIOD
BEGIN PERIOD 487
 TRANSIENT
END PERIOD
BEGIN PERIOD 488
 TRANSIENT
END PERIOD
BEGIN PERIOD 489
 TRANSIENT
END PERIOD
BEGIN PERIOD 490
 TRANSIENT
END PERIOD
BEGIN PERIOD 491
 TRANSIENT
END PERIOD
BEGIN PERIOD 492
 TRANSIENT
END PERIOD
BEGIN PERIOD 493
 TRANSIENT
END PERIOD
BEGIN PERIOD 494
 TRANSIENT
END PERIOD
BEGIN PERIOD 495
 TRANSIENT
END PERIOD
BEGIN PERIOD 496
 TRANSIENT
END PERIOD
BEGIN PERIOD 497
 TRANSIENT
END PERIOD
BEGIN PERIOD 498
 TRANSIENT
END PERIOD
BEGIN PERIOD 499
 TRANSIENT
END PERIOD
BEGIN PERIOD 500
 TRANSIENT
END PERIOD
BEGIN PERIOD 501
 TRANSIENT
END PERIOD
BEGIN PERIOD 502
 TRANSIENT
END PERIOD
BEGIN PERIOD 503
 TRANSIENT
END PERIOD
BEGIN PERIOD 504
 TRANSIENT
END PERIOD
BEGIN PERIOD 505
 TRANSIENT
END PERIOD
BEGIN PERIOD 506
 TRANSIENT
END PERIOD
BEGIN PERIOD 507
 TRANSIENT
END PERIOD
BEGIN PERIOD 508
 TRANSIENT
END PERIOD
BEGIN PERIOD 509
 TRANSIENT
END PERIOD
BEGIN PERIOD 510
 TRANSIENT
END PERIOD
BEGIN PERIOD 511
 TRANSIENT
END PERIOD
BEGIN PERIOD 512
 TRANSIENT
END PERIOD
BEGIN PERIOD 513
 TRANSIENT
END PERIOD
BEGIN PERIOD 514
 TRANSIENT
END PERIOD
BEGIN PERIOD 515
 TRANSIENT
END PERIOD
BEGIN PERIOD 516
 TRANSIENT
END PERIOD
BEGIN PERIOD 517
 TRANSIENT
END PERIOD
BEGIN PERIOD 518
 TRANSIENT
END PERIOD
BEGIN PERIOD 519
 TRANSIENT
END PERIOD
BEGIN PERIOD 520
 TRANSIENT
END PERIOD
BEGIN PERIOD 521
 TRANSIENT
END PERIOD
BEGIN PERIOD 522
 TRANSIENT
END PERIOD
BEGIN PERIOD 523
 TRANSIENT
END PERIOD
BEGIN PERIOD 524
 TRANSIENT
END PERIOD
BEGIN PERIOD 525
 TRANSIENT
END PERIOD
BEGIN PERIOD 526
 TRANSIENT
END PERIOD
BEGIN PERIOD 527
 TRANSIENT
END PERIOD
BEGIN PERIOD 528
 TRANSIENT
END PERIOD
BEGIN PERIOD 529
 TRANSIENT
END PERIOD
BEGIN PERIOD 530
 TRANSIENT
END PERIOD
BEGIN PERIOD 531
 TRANSIENT
END PERIOD
BEGIN PERIOD 532
 TRANSIENT
END PERIOD
BEGIN PERIOD 533
 TRANSIENT
END PERIOD
BEGIN PERIOD 534
 TRANSIENT
END PERIOD
BEGIN PERIOD 535
 TRANSIENT
END PERIOD
BEGIN PERIOD 536
 TRANSIENT
END PERIOD
BEGIN PERIOD 537
 TRANSIENT
END PERIOD
BEGIN PERIOD 538
 TRANSIENT
END PERIOD
BEGIN PERIOD 539
 TRANSIENT
END PERIOD
BEGIN PERIOD 540
 TRANSIENT
END PERIOD
BEGIN PERIOD 541
 TRANSIENT
END PERIOD
BEGIN PERIOD 542
 TRANSIENT
END PERIOD
BEGIN PERIOD 543
 TRANSIENT
END PERIOD
BEGIN PERIOD 544
 TRANSIENT
END PERIOD
BEGIN PERIOD 545
 TRANSIENT
END PERIOD
BEGIN PERIOD 546
 TRANSIENT
END PERIOD
BEGIN PERIOD 547
 TRANSIENT
END PERIOD
BEGIN PERIOD 548
 TRANSIENT
END PERIOD
BEGIN PERIOD 549
 TRANSIENT
END PERIOD
BEGIN PERIOD 550
 TRANSIENT
END PERIOD
BEGIN PERIOD 551
 TRANSIENT
END PERIOD
BEGIN PERIOD 552
 TRANSIENT
END PERIOD
BEGIN PERIOD 553
 TRANSIENT
END PERIOD
BEGIN PERIOD 554
 TRANSIENT
END PERIOD
BEGIN PERIOD 555
 TRANSIENT
END PERIOD
BEGIN PERIOD 556
 TRANSIENT
END PERIOD
BEGIN PERIOD 557
 TRANSIENT
END PERIOD
BEGIN PERIOD 558
 TRANSIENT
END PERIOD
BEGIN PERIOD 559
 TRANSIENT
END PERIOD
BEGIN PERIOD 560
 TRANSIENT
END PERIOD
BEGIN PERIOD 561
 TRANSIENT
END PERIOD
BEGIN PERIOD 562
 TRANSIENT
END PERIOD
BEGIN PERIOD 563
 TRANSIENT
END PERIOD
BEGIN PERIOD 564
 TRANSIENT
END PERIOD
BEGIN PERIOD 565
 TRANSIENT
END PERIOD
BEGIN PERIOD 566
 TRANSIENT
END PERIOD
BEGIN PERIOD 567
 TRANSIENT
END PERIOD
BEGIN PERIOD 568
 TRANSIENT
END PERIOD
BEGIN PERIOD 569
 TRANSIENT
END PERIOD
BEGIN PERIOD 570
 TRANSIENT
END PERIOD
BEGIN PERIOD 571
 TRANSIENT
END PERIOD
BEGIN PERIOD 572
 TRANSIENT
END PERIOD
BEGIN PERIOD 573
 TRANSIENT
END PERIOD
BEGIN PERIOD 574
 TRANSIENT
END PERIOD
BEGIN PERIOD 575
 TRANSIENT
END PERIOD
BEGIN PERIOD 576
 TRANSIENT
END PERIOD
BEGIN PERIOD 577
 TRANSIENT
END PERIOD
BEGIN PERIOD 578
 TRANSIENT
END PERIOD
BEGIN PERIOD 579
 TRANSIENT
END PERIOD
BEGIN PERIOD 580
 TRANSIENT
END PERIOD
BEGIN PERIOD 581
 TRANSIENT
END PERIOD
BEGIN PERIOD 582
 TRANSIENT
END PERIOD
BEGIN PERIOD 583
 TRANSIENT
END PERIOD
BEGIN PERIOD 584
 TRANSIENT
END PERIOD
BEGIN PERIOD 585
 TRANSIENT
END PERIOD
BEGIN PERIOD 586
 TRANSIENT
END PERIOD
BEGIN PERIOD 587
 TRANSIENT
END PERIOD
BEGIN PERIOD 588
 TRANSIENT
END PERIOD
BEGIN PERIOD 589
 TRANSIENT
END PERIOD
BEGIN PERIOD 590
 TRANSIENT
END PERIOD
BEGIN PERIOD 591
 TRANSIENT
END PERIOD
BEGIN PERIOD 592
 TRANSIENT
END PERIOD
BEGIN PERIOD 593
 TRANSIENT
END PERIOD
BEGIN PERIOD 594
 TRANSIENT
END PERIOD
BEGIN PERIOD 595
 TRANSIENT
END PERIOD
BEGIN PERIOD 596
 TRANSIENT
END PERIOD
BEGIN PERIOD 597
 TRANSIENT
END PERIOD
BEGIN PERIOD 598
 TRANSIENT
END PERIOD
BEGIN PERIOD 599
 TRANSIENT
END PERIOD
BEGIN PERIOD 600
 TRANSIENT
END PERIOD
BEGIN PERIOD 601
 TRANSIENT
END PERIOD
BEGIN PERIOD 602
 TRANSIENT
END PERIOD
BEGIN PERIOD 603
 TRANSIENT
END PERIOD
BEGIN PERIOD 604
 TRANSIENT
END PERIOD
BEGIN PERIOD 605
 TRANSIENT
END PERIOD
BEGIN PERIOD 606
 TRANSIENT
END PERIOD
BEGIN PERIOD 607
 TRANSIENT
END PERIOD
BEGIN PERIOD 608
 TRANSIENT
END PERIOD
BEGIN PERIOD 609
 TRANSIENT
END PERIOD
BEGIN PERIOD 610
 TRANSIENT
END PERIOD
BEGIN PERIOD 611
 TRANSIENT
END PERIOD
BEGIN PERIOD 612
 TRANSIENT
END PERIOD
BEGIN PERIOD 613
 TRANSIENT
END PERIOD
BEGIN PERIOD 614
 TRANSIENT
END PERIOD
BEGIN PERIOD 615
 TRANSIENT
END PERIOD
BEGIN PERIOD 616
 TRANSIENT
END PERIOD
BEGIN PERIOD 617
 TRANSIENT
END PERIOD
BEGIN PERIOD 618
 TRANSIENT
END PERIOD
BEGIN PERIOD 619
 TRANSIENT
END PERIOD
BEGIN PERIOD 620
 TRANSIENT
END PERIOD
BEGIN PERIOD 621
 TRANSIENT
END PERIOD
BEGIN PERIOD 622
 TRANSIENT
END PERIOD
BEGIN PERIOD 623
 TRANSIENT
END PERIOD
BEGIN PERIOD 624
 TRANSIENT
END PERIOD
BEGIN PERIOD 625
 TRANSIENT
END PERIOD
BEGIN PERIOD 626
 TRANSIENT
END PERIOD
BEGIN PERIOD 627
 TRANSIENT
END PERIOD
BEGIN PERIOD 628
 TRANSIENT
END PERIOD
BEGIN PERIOD 629
 TRANSIENT
END PERIOD
BEGIN PERIOD 630
 TRANSIENT
END PERIOD
BEGIN PERIOD 631
 TRANSIENT
END PERIOD
BEGIN PERIOD 632
 TRANSIENT
END PERIOD
BEGIN PERIOD 633
 TRANSIENT
END PERIOD
BEGIN PERIOD 634
 TRANSIENT
END PERIOD
BEGIN PERIOD 635
 TRANSIENT
END PERIOD
BEGIN PERIOD 636
 TRANSIENT
END PERIOD
BEGIN PERIOD 637
 TRANSIENT
END PERIOD
BEGIN PERIOD 638
 TRANSIENT
END PERIOD
BEGIN PERIOD 639
 TRANSIENT
END PERIOD
BEGIN PERIOD 640
 TRANSIENT
END PERIOD
BEGIN PERIOD 641
 TRANSIENT
END PERIOD
BEGIN PERIOD 642
 TRANSIENT
END PERIOD
BEGIN PERIOD 643
 TRANSIENT
END PERIOD
BEGIN PERIOD 644
 TRANSIENT
END PERIOD
BEGIN PERIOD 645
 TRANSIENT
END PERIOD
BEGIN PERIOD 646
 TRANSIENT
END PERIOD
BEGIN PERIOD 647
 TRANSIENT
END PERIOD
BEGIN PERIOD 648
 TRANSIENT
END PERIOD
BEGIN PERIOD 649
 TRANSIENT
END PERIOD
BEGIN PERIOD 650
 TRANSIENT
END PERIOD
BEGIN PERIOD 651
 TRANSIENT
END PERIOD
BEGIN PERIOD 652
 TRANSIENT
END PERIOD
BEGIN PERIOD 653
 TRANSIENT
END PERIOD
BEGIN PERIOD 654
 TRANSIENT
END PERIOD
BEGIN PERIOD 655
 TRANSIENT
END PERIOD
BEGIN PERIOD 656
 TRANSIENT
END PERIOD
BEGIN PERIOD 657
 TRANSIENT
END PERIOD
BEGIN PERIOD 658
 TRANSIENT
END PERIOD
BEGIN PERIOD 659
 TRANSIENT
END PERIOD
BEGIN PERIOD 660
 TRANSIENT
END PERIOD
BEGIN PERIOD 661
 TRANSIENT
END PERIOD
BEGIN PERIOD 662
 TRANSIENT
END PERIOD
BEGIN PERIOD 663
 TRANSIENT
END PERIOD
BEGIN PERIOD 664
 TRANSIENT
END PERIOD
BEGIN PERIOD 665
 TRANSIENT
END PERIOD
BEGIN PERIOD 666
 TRANSIENT
END PERIOD
BEGIN PERIOD 667
 TRANSIENT
END PERIOD
BEGIN PERIOD 668
 TRANSIENT
END PERIOD
BEGIN PERIOD 669
 TRANSIENT
END PERIOD
BEGIN PERIOD 670
 TRANSIENT
END PERIOD
BEGIN PERIOD 671
 TRANSIENT
END PERIOD
BEGIN PERIOD 672
 TRANSIENT
END PERIOD
BEGIN PERIOD 673
 TRANSIENT
END PERIOD
BEGIN PERIOD 674
 TRANSIENT
END PERIOD
BEGIN PERIOD 675
 TRANSIENT
END PERIOD
BEGIN PERIOD 676
 TRANSIENT
END PERIOD
BEGIN PERIOD 677
 TRANSIENT
END PERIOD
BEGIN PERIOD 678
 TRANSIENT
END PERIOD
BEGIN PERIOD 679
 TRANSIENT
END PERIOD
BEGIN PERIOD 680
 TRANSIENT
END PERIOD
BEGIN PERIOD 681
 TRANSIENT
END PERIOD
BEGIN PERIOD 682
 TRANSIENT
END PERIOD
BEGIN PERIOD 683
 TRANSIENT
END PERIOD
BEGIN PERIOD 684
 TRANSIENT
END PERIOD
BEGIN PERIOD 685
 TRANSIENT
END PERIOD
BEGIN PERIOD 686
 TRANSIENT
END PERIOD
BEGIN PERIOD 687
 TRANSIENT
END PERIOD
BEGIN PERIOD 688
 TRANSIENT
END PERIOD
BEGIN PERIOD 689
 TRANSIENT
END PERIOD
BEGIN PERIOD 690
 TRANSIENT
END PERIOD
BEGIN PERIOD 691
 TRANSIENT
END PERIOD
BEGIN PERIOD 692
 TRANSIENT
END PERIOD
BEGIN PERIOD 693
 TRANSIENT
END PERIOD
BEGIN PERIOD 694
 TRANSIENT
END PERIOD
BEGIN PERIOD 695
 TRANSIENT
END PERIOD
BEGIN PERIOD 696
 TRANSIENT
END PERIOD
BEGIN PERIOD 697
 TRANSIENT
END PERIOD
BEGIN PERIOD 698
 TRANSIENT
END PERIOD
BEGIN PERIOD 699
 TRANSIENT
END PERIOD
BEGIN PERIOD 700
 TRANSIENT
END PERIOD
BEGIN PERIOD 701
 TRANSIENT
END PERIOD
BEGIN PERIOD 702
 TRANSIENT
END PERIOD
BEGIN PERIOD 703
 TRANSIENT
END PERIOD
BEGIN PERIOD 704
 TRANSIENT
END PERIOD
BEGIN PERIOD 705
 TRANSIENT
END PERIOD
BEGIN PERIOD 706
 TRANSIENT
END PERIOD
BEGIN PERIOD 707
 TRANSIENT
END PERIOD
BEGIN PERIOD 708
 TRANSIENT
END PERIOD
BEGIN PERIOD 709
 TRANSIENT
END PERIOD
BEGIN PERIOD 710
 TRANSIENT
END PERIOD
BEGIN PERIOD 711
 TRANSIENT
END PERIOD
BEGIN PERIOD 712
 TRANSIENT
END PERIOD
BEGIN PERIOD 713
 TRANSIENT
END PERIOD
BEGIN PERIOD 714
 TRANSIENT
END PERIOD
BEGIN PERIOD 715
 TRANSIENT
END PERIOD
BEGIN PERIOD 716
 TRANSIENT
END PERIOD
BEGIN PERIOD 717
 TRANSIENT
END PERIOD
BEGIN PERIOD 718
 TRANSIENT
END PERIOD
BEGIN PERIOD 719
 TRANSIENT
END PERIOD
BEGIN PERIOD 720
 TRANSIENT
END PERIOD
BEGIN PERIOD 721
 TRANSIENT
END PERIOD
BEGIN PERIOD 722
 TRANSIENT
END PERIOD
BEGIN PERIOD 723
 TRANSIENT
END PERIOD
BEGIN PERIOD 724
 TRANSIENT
END PERIOD
BEGIN PERIOD 725
 TRANSIENT
END PERIOD
BEGIN PERIOD 726
 TRANSIENT
END PERIOD
BEGIN PERIOD 727
 TRANSIENT
END PERIOD
BEGIN PERIOD 728
 TRANSIENT
END PERIOD
BEGIN PERIOD 729
 TRANSIENT
END PERIOD
BEGIN PERIOD 730
 TRANSIENT
END PERIOD
BEGIN PERIOD 731
 TRANSIENT
END PERIOD
BEGIN PERIOD 732
 TRANSIENT
END PERIOD
BEGIN PERIOD 733
 TRANSIENT
END PERIOD
BEGIN PERIOD 734
 TRANSIENT
END PERIOD
BEGIN PERIOD 735
 TRANSIENT
END PERIOD
BEGIN PERIOD 736
 TRANSIENT
END PERIOD
BEGIN PERIOD 737
 TRANSIENT
END PERIOD
BEGIN PERIOD 738
 TRANSIENT
END PERIOD
BEGIN PERIOD 739
 TRANSIENT
END PERIOD
BEGIN PERIOD 740
 TRANSIENT
END PERIOD
BEGIN PERIOD 741
 TRANSIENT
END PERIOD
BEGIN PERIOD 742
 TRANSIENT
END PERIOD
BEGIN PERIOD 743
 TRANSIENT
END PERIOD
BEGIN PERIOD 744
 TRANSIENT
END PERIOD
BEGIN PERIOD 745
 TRANSIENT
END PERIOD
BEGIN PERIOD 746
 TRANSIENT
END PERIOD
BEGIN PERIOD 747
 TRANSIENT
END PERIOD
BEGIN PERIOD 748
 TRANSIENT
END PERIOD
BEGIN PERIOD 749
 TRANSIENT
END PERIOD
BEGIN PERIOD 750
 TRANSIENT
END PERIOD
BEGIN PERIOD 751
 TRANSIENT
END PERIOD
BEGIN PERIOD 752
 TRANSIENT
END PERIOD
BEGIN PERIOD 753
 TRANSIENT
END PERIOD
BEGIN PERIOD 754
 TRANSIENT
END PERIOD
BEGIN PERIOD 755
 TRANSIENT
END PERIOD
BEGIN PERIOD 756
 TRANSIENT
END PERIOD
BEGIN PERIOD 757
 TRANSIENT
END PERIOD
BEGIN PERIOD 758
 TRANSIENT