# RIV6 File Generated by iMOD [V5_4 X64 Optimized]

#General Options

BEGIN OPTIONS
 SAVE_FLOWS
END OPTIONS

#General Dimensions

BEGIN DIMENSIONS
MAXBOUND 55
END DIMENSIONS

BEGIN PERIOD 1
OPEN/CLOSE .\GWF_1\MODELINPUT\ISG6\SYS1\ISG_T1.ARR 1.0 (FREE) -1
END PERIOD
