# IC6 File Generated by iMOD [V5_4 X64 Optimized]

#General Options

BEGIN OPTIONS
END OPTIONS

#Initial Head Data

BEGIN GRIDDATA
 STRT LAYERED
  CONSTANT 0.1000000E+02     IC_L1
END GRIDDATA
