begin options
  time_units days
  start_date_time 1971-01-01T00:00:00.000000000
end options

begin dimensions
  nper 212
end dimensions

begin perioddata
  1.0 1 1.0
  1.0 1 1.0
  1.0 1 1.0
  1.0 1 1.0
  1.0 1 1.0
  1.0 1 1.0
  1.0 1 1.0
  1.0 1 1.0
  1.0 1 1.0
  1.0 1 1.0
  1.0 1 1.0
  1.0 1 1.0
  1.0 1 1.0
  1.0 1 1.0
  1.0 1 1.0
  1.0 1 1.0
  1.0 1 1.0
  1.0 1 1.0
  1.0 1 1.0
  1.0 1 1.0
  1.0 1 1.0
  1.0 1 1.0
  1.0 1 1.0
  1.0 1 1.0
  1.0 1 1.0
  1.0 1 1.0
  1.0 1 1.0
  1.0 1 1.0
  1.0 1 1.0
  1.0 1 1.0
  1.0 1 1.0
  1.0 1 1.0
  1.0 1 1.0
  1.0 1 1.0
  1.0 1 1.0
  1.0 1 1.0
  1.0 1 1.0
  1.0 1 1.0
  1.0 1 1.0
  1.0 1 1.0
  1.0 1 1.0
  1.0 1 1.0
  1.0 1 1.0
  1.0 1 1.0
  1.0 1 1.0
  1.0 1 1.0
  1.0 1 1.0
  1.0 1 1.0
  1.0 1 1.0
  1.0 1 1.0
  1.0 1 1.0
  1.0 1 1.0
  1.0 1 1.0
  1.0 1 1.0
  1.0 1 1.0
  1.0 1 1.0
  1.0 1 1.0
  1.0 1 1.0
  1.0 1 1.0
  1.0 1 1.0
  1.0 1 1.0
  1.0 1 1.0
  1.0 1 1.0
  1.0 1 1.0
  1.0 1 1.0
  1.0 1 1.0
  1.0 1 1.0
  1.0 1 1.0
  1.0 1 1.0
  1.0 1 1.0
  1.0 1 1.0
  1.0 1 1.0
  1.0 1 1.0
  1.0 1 1.0
  1.0 1 1.0
  1.0 1 1.0
  1.0 1 1.0
  1.0 1 1.0
  1.0 1 1.0
  1.0 1 1.0
  1.0 1 1.0
  1.0 1 1.0
  1.0 1 1.0
  1.0 1 1.0
  1.0 1 1.0
  1.0 1 1.0
  1.0 1 1.0
  1.0 1 1.0
  1.0 1 1.0
  1.0 1 1.0
  1.0 1 1.0
  1.0 1 1.0
  1.0 1 1.0
  1.0 1 1.0
  1.0 1 1.0
  1.0 1 1.0
  1.0 1 1.0
  1.0 1 1.0
  1.0 1 1.0
  1.0 1 1.0
  1.0 1 1.0
  1.0 1 1.0
  1.0 1 1.0
  1.0 1 1.0
  1.0 1 1.0
  1.0 1 1.0
  1.0 1 1.0
  1.0 1 1.0
  1.0 1 1.0
  1.0 1 1.0
  1.0 1 1.0
  1.0 1 1.0
  1.0 1 1.0
  1.0 1 1.0
  1.0 1 1.0
  1.0 1 1.0
  1.0 1 1.0
  1.0 1 1.0
  1.0 1 1.0
  1.0 1 1.0
  1.0 1 1.0
  1.0 1 1.0
  1.0 1 1.0
  1.0 1 1.0
  1.0 1 1.0
  1.0 1 1.0
  1.0 1 1.0
  1.0 1 1.0
  1.0 1 1.0
  1.0 1 1.0
  1.0 1 1.0
  1.0 1 1.0
  1.0 1 1.0
  1.0 1 1.0
  1.0 1 1.0
  1.0 1 1.0
  1.0 1 1.0
  1.0 1 1.0
  1.0 1 1.0
  1.0 1 1.0
  1.0 1 1.0
  1.0 1 1.0
  1.0 1 1.0
  1.0 1 1.0
  1.0 1 1.0
  1.0 1 1.0
  1.0 1 1.0
  1.0 1 1.0
  1.0 1 1.0
  1.0 1 1.0
  1.0 1 1.0
  1.0 1 1.0
  1.0 1 1.0
  1.0 1 1.0
  1.0 1 1.0
  1.0 1 1.0
  1.0 1 1.0
  1.0 1 1.0
  1.0 1 1.0
  1.0 1 1.0
  1.0 1 1.0
  1.0 1 1.0
  1.0 1 1.0
  1.0 1 1.0
  1.0 1 1.0
  1.0 1 1.0
  1.0 1 1.0
  1.0 1 1.0
  1.0 1 1.0
  1.0 1 1.0
  1.0 1 1.0
  1.0 1 1.0
  1.0 1 1.0
  1.0 1 1.0
  1.0 1 1.0
  1.0 1 1.0
  1.0 1 1.0
  1.0 1 1.0
  1.0 1 1.0
  1.0 1 1.0
  1.0 1 1.0
  1.0 1 1.0
  1.0 1 1.0
  1.0 1 1.0
  1.0 1 1.0
  1.0 1 1.0
  1.0 1 1.0
  1.0 1 1.0
  1.0 1 1.0
  1.0 1 1.0
  1.0 1 1.0
  1.0 1 1.0
  1.0 1 1.0
  1.0 1 1.0
  1.0 1 1.0
  1.0 1 1.0
  1.0 1 1.0
  1.0 1 1.0
  1.0 1 1.0
  1.0 1 1.0
  1.0 1 1.0
  1.0 1 1.0
  1.0 1 1.0
  1.0 1 1.0
  1.0 1 1.0
  1.0 1 1.0
  1.0 1 1.0
  1.0 1 1.0
  1.0 1 1.0
  1.0 1 1.0
  1.0 1 1.0
  1.0 1 1.0
end perioddata
