# T-MODEL-D.NAM File Generated by iMOD [V5_4 X64 Optimized]

#General Options

BEGIN OPTIONS
 LIST .\GWF_1\T-MODEL-D.LST
END OPTIONS

#List of Packages

BEGIN PACKAGES
 DIS6 .\GWF_1\MODELINPUT\T-MODEL-D.DIS6
 IC6  .\GWF_1\MODELINPUT\T-MODEL-D.IC6
 NPF6 .\GWF_1\MODELINPUT\T-MODEL-D.NPF6
 OC6  .\GWF_1\MODELINPUT\T-MODEL-D.OC6
 STO6 .\GWF_1\MODELINPUT\T-MODEL-D.STO6
 DRN6 .\GWF_1\MODELINPUT\T-MODEL-D_SYS1.DRN6 DRN_SYS1
 RIV6 .\GWF_1\MODELINPUT\T-MODEL-D_SYS1.RIV6 RIV_SYS1
 RIV6 .\GWF_1\MODELINPUT\T-MODEL-D_SYS2.RIV6 RIV_SYS2
 RCH6 .\GWF_1\MODELINPUT\MSW.RCH6 RCH_MSW
END PACKAGES
