# MS_MF6.NAM File Generated by iMOD [V5_0 X64 Optimized]

#General Options

BEGIN OPTIONS
 LIST .\GWF_1\MS_MF6.LST
END OPTIONS

#List of Packages

BEGIN PACKAGES
 DIS6 .\GWF_1\MODELINPUT\MS_MF6.DIS6
 IC6  .\GWF_1\MODELINPUT\MS_MF6.IC6
 NPF6 .\GWF_1\MODELINPUT\MS_MF6.NPF6
 OC6  .\GWF_1\MODELINPUT\MS_MF6.OC6
 STO6 .\GWF_1\MODELINPUT\MS_MF6.STO6
 DRN6 .\GWF_1\MODELINPUT\MS_MF6.DRN6
 RIV6 .\GWF_1\MODELINPUT\MS_MF6.RIV6
 RCH6 .\GWF_1\MODELINPUT\MS_MF6.RCH6 RCH_MSW
END PACKAGES
