begin options
end options

begin dimensions
  maxbound 1
end dimensions

begin period 1
        #layer  row  col      Q     boundname
             1    1    1      0       W_1
end period
