begin options
end options

begin dimensions
  maxbound 15
end dimensions

begin period 1
  open/close GWF_1/wells_msw/wel.bin (binary)
end period

