# STO6 File Generated by iMOD [V5_4 X64 Optimized]

#General Options

BEGIN OPTIONS
 STORAGECOEFFICIENT
END OPTIONS

#Geology Options

BEGIN GRIDDATA
 ICONVERT LAYERED
  CONSTANT 0
 SS LAYERED
  CONSTANT 0.1500000E+00     SS_L1
END GRIDDATA

#Time Storage Options

BEGIN PERIOD 1
 TRANSIENT
END PERIOD
