# MFSIM.NAM File Generated by iMOD [V5_4 X64 Optimized]

#General Options

BEGIN OPTIONS
END OPTIONS

#Timing Options

BEGIN TIMING
 TDIS6 .\MFSIM.TDIS6
END TIMING

#List of Models

BEGIN MODELS
 GWF6 .\GWF_1\T-MODEL-D.NAM GWF_1
END MODELS

#List of Exchanges

BEGIN EXCHANGES
END EXCHANGES

#Definition of Numerical Solution

BEGIN SOLUTIONGROUP 1
 MXITER 1
 IMS6 .\MFSIM.IMS6 GWF_1
END SOLUTIONGROUP
