# IMS6 File Generated by iMOD [V5_0 X64 Optimized]

#General options

BEGIN OPTIONS
 PRINT_OPTION SUMMARY
 COMPLEXITY MODERATE
 CSV_OUTER_OUTPUT FILEOUT MFSIM.CSV
END OPTIONS

#Nonlinear options

BEGIN NONLINEAR
 OUTER_HCLOSE   0.1000000E-02
 OUTER_MAXIMUM        150
END NONLINEAR

#Linear options

BEGIN LINEAR
 INNER_MAXIMUM         50
 INNER_HCLOSE   0.1000000E-02
 INNER_RCLOSE    10.00000    
 RELAXATION_FACTOR   0.9800000    
END LINEAR
