# NPF6 File Generated by iMOD [V5_0 X64 Optimized]

#General Options

BEGIN OPTIONS
 ALTERNATIVE_CELL_AVERAGING AMT-HMK
 THICKSTRT
END OPTIONS

#Geology Options

BEGIN GRIDDATA
 ICELLTYPE LAYERED
  CONSTANT 0
  CONSTANT 0
  CONSTANT 0
 K LAYERED
  CONSTANT 1.0e-3
  CONSTANT 1.0e-3
  CONSTANT 1.0e-3
 K33 LAYERED
  CONSTANT  1.0
  CONSTANT  1.0e-3
  CONSTANT  1.0
END GRIDDATA
