General Options

BEGIN OPTIONS
 LENGTH_UNITS METERS
 XORIGIN 0.000
 YORIGIN 0.000
 ANGROT 0.0
END OPTIONS

#Model Dimensions

BEGIN DIMENSIONS
 NLAY 3
 NROW 372
 NCOL 1
END DIMENSIONS

BEGIN GRIDDATA
    DELR
    CONSTANT 100
    DELC
    CONSTANT 100
    TOP
        CONSTANT 0.0000000E+00
    BOTM LAYERED
        CONSTANT -0.1000000E+03
        CONSTANT -0.2000000E+03
        CONSTANT -0.3000000E+03
END GRIDDATA
