BEGIN OPTIONS
    SAVE_FLOWS
    STORAGECOEFFICIENT
END OPTIONS

BEGIN GRIDDATA
    ICONVERT LAYERED
        CONSTANT 0
        CONSTANT 0
        CONSTANT 0
    SS LAYERED
        CONSTANT 0.1000000E-04
        CONSTANT 0.1000000E-04
        CONSTANT 0.1000000E-04
END GRIDDATA

BEGIN PERIOD 1
    TRANSIENT
END PERIOD
