BEGIN OPTIONS
SAVE_FLOWS
END OPTIONS

BEGIN DIMENSIONS
  MAXBOUND 372
END DIMENSIONS

BEGIN PERIOD 1
    1     1     1    0.00
    1     2     1    0.00
    1     3     1    0.00
    1     4     1    0.00
    1     5     1    0.00
    1     6     1    0.00
    1     7     1    0.00
    1     8     1    0.00
    1     9     1    0.00
    1     10    1    0.00
    1     11    1    0.00
    1     12    1    0.00
    1     13    1    0.00
    1     14    1    0.00
    1     15    1    0.00
    1     16    1    0.00
    1     17    1    0.00
    1     18    1    0.00
    1     19    1    0.00
    1     20    1    0.00
    1     21    1    0.00
    1     22    1    0.00
    1     23    1    0.00
    1     24    1    0.00
    1     25    1    0.00
    1     26    1    0.00
    1     27    1    0.00
    1     28    1    0.00
    1     29    1    0.00
    1     30    1    0.00
    1     31    1    0.00
    1     32    1    0.00
    1     33    1    0.00
    1     34    1    0.00
    1     35    1    0.00
    1     36    1    0.00
    1     37    1    0.00
    1     38    1    0.00
    1     39    1    0.00
    1     40    1    0.00
    1     41    1    0.00
    1     42    1    0.00
    1     43    1    0.00
    1     44    1    0.00
    1     45    1    0.00
    1     46    1    0.00
    1     47    1    0.00
    1     48    1    0.00
    1     49    1    0.00
    1     50    1    0.00
    1     51    1    0.00
    1     52    1    0.00
    1     53    1    0.00
    1     54    1    0.00
    1     55    1    0.00
    1     56    1    0.00
    1     57    1    0.00
    1     58    1    0.00
    1     59    1    0.00
    1     60    1    0.00
    1     61    1    0.00
    1     62    1    0.00
    1     63    1    0.00
    1     64    1    0.00
    1     65    1    0.00
    1     66    1    0.00
    1     67    1    0.00
    1     68    1    0.00
    1     69    1    0.00
    1     70    1    0.00
    1     71    1    0.00
    1     72    1    0.00
    1     73    1    0.00
    1     74    1    0.00
    1     75    1    0.00
    1     76    1    0.00
    1     77    1    0.00
    1     78    1    0.00
    1     79    1    0.00
    1     80    1    0.00
    1     81    1    0.00
    1     82    1    0.00
    1     83    1    0.00
    1     84    1    0.00
    1     85    1    0.00
    1     86    1    0.00
    1     87    1    0.00
    1     88    1    0.00
    1     89    1    0.00
    1     90    1    0.00
    1     91    1    0.00
    1     92    1    0.00
    1     93    1    0.00
    1     94    1    0.00
    1     95    1    0.00
    1     96    1    0.00
    1     97    1    0.00
    1     98    1    0.00
    1     99    1    0.00
    1     100   1    0.00
    1     101   1    0.00
    1     102   1    0.00
    1     103   1    0.00
    1     104   1    0.00
    1     105   1    0.00
    1     106   1    0.00
    1     107   1    0.00
    1     108   1    0.00
    1     109   1    0.00
    1     110   1    0.00
    1     111   1    0.00
    1     112   1    0.00
    1     113   1    0.00
    1     114   1    0.00
    1     115   1    0.00
    1     116   1    0.00
    1     117   1    0.00
    1     118   1    0.00
    1     119   1    0.00
    1     120   1    0.00
    1     121   1    0.00
    1     122   1    0.00
    1     123   1    0.00
    1     124   1    0.00
    1     125   1    0.00
    1     126   1    0.00
    1     127   1    0.00
    1     128   1    0.00
    1     129   1    0.00
    1     130   1    0.00
    1     131   1    0.00
    1     132   1    0.00
    1     133   1    0.00
    1     134   1    0.00
    1     135   1    0.00
    1     136   1    0.00
    1     137   1    0.00
    1     138   1    0.00
    1     139   1    0.00
    1     140   1    0.00
    1     141   1    0.00
    1     142   1    0.00
    1     143   1    0.00
    1     144   1    0.00
    1     145   1    0.00
    1     146   1    0.00
    1     147   1    0.00
    1     148   1    0.00
    1     149   1    0.00
    1     150   1    0.00
    1     151   1    0.00
    1     152   1    0.00
    1     153   1    0.00
    1     154   1    0.00
    1     155   1    0.00
    1     156   1    0.00
    1     157   1    0.00
    1     158   1    0.00
    1     159   1    0.00
    1     160   1    0.00
    1     161   1    0.00
    1     162   1    0.00
    1     163   1    0.00
    1     164   1    0.00
    1     165   1    0.00
    1     166   1    0.00
    1     167   1    0.00
    1     168   1    0.00
    1     169   1    0.00
    1     170   1    0.00
    1     171   1    0.00
    1     172   1    0.00
    1     173   1    0.00
    1     174   1    0.00
    1     175   1    0.00
    1     176   1    0.00
    1     177   1    0.00
    1     178   1    0.00
    1     179   1    0.00
    1     180   1    0.00
    1     181   1    0.00
    1     182   1    0.00
    1     183   1    0.00
    1     184   1    0.00
    1     185   1    0.00
    1     186   1    0.00
    1     187   1    0.00
    1     188   1    0.00
    1     189   1    0.00
    1     190   1    0.00
    1     191   1    0.00
    1     192   1    0.00
    1     193   1    0.00
    1     194   1    0.00
    1     195   1    0.00
    1     196   1    0.00
    1     197   1    0.00
    1     198   1    0.00
    1     199   1    0.00
    1     200   1    0.00
    1     201   1    0.00
    1     202   1    0.00
    1     203   1    0.00
    1     204   1    0.00
    1     205   1    0.00
    1     206   1    0.00
    1     207   1    0.00
    1     208   1    0.00
    1     209   1    0.00
    1     210   1    0.00
    1     211   1    0.00
    1     212   1    0.00
    1     213   1    0.00
    1     214   1    0.00
    1     215   1    0.00
    1     216   1    0.00
    1     217   1    0.00
    1     218   1    0.00
    1     219   1    0.00
    1     220   1    0.00
    1     221   1    0.00
    1     222   1    0.00
    1     223   1    0.00
    1     224   1    0.00
    1     225   1    0.00
    1     226   1    0.00
    1     227   1    0.00
    1     228   1    0.00
    1     229   1    0.00
    1     230   1    0.00
    1     231   1    0.00
    1     232   1    0.00
    1     233   1    0.00
    1     234   1    0.00
    1     235   1    0.00
    1     236   1    0.00
    1     237   1    0.00
    1     238   1    0.00
    1     239   1    0.00
    1     240   1    0.00
    1     241   1    0.00
    1     242   1    0.00
    1     243   1    0.00
    1     244   1    0.00
    1     245   1    0.00
    1     246   1    0.00
    1     247   1    0.00
    1     248   1    0.00
    1     249   1    0.00
    1     250   1    0.00
    1     251   1    0.00
    1     252   1    0.00
    1     253   1    0.00
    1     254   1    0.00
    1     255   1    0.00
    1     256   1    0.00
    1     257   1    0.00
    1     258   1    0.00
    1     259   1    0.00
    1     260   1    0.00
    1     261   1    0.00
    1     262   1    0.00
    1     263   1    0.00
    1     264   1    0.00
    1     265   1    0.00
    1     266   1    0.00
    1     267   1    0.00
    1     268   1    0.00
    1     269   1    0.00
    1     270   1    0.00
    1     271   1    0.00
    1     272   1    0.00
    1     273   1    0.00
    1     274   1    0.00
    1     275   1    0.00
    1     276   1    0.00
    1     277   1    0.00
    1     278   1    0.00
    1     279   1    0.00
    1     280   1    0.00
    1     281   1    0.00
    1     282   1    0.00
    1     283   1    0.00
    1     284   1    0.00
    1     285   1    0.00
    1     286   1    0.00
    1     287   1    0.00
    1     288   1    0.00
    1     289   1    0.00
    1     290   1    0.00
    1     291   1    0.00
    1     292   1    0.00
    1     293   1    0.00
    1     294   1    0.00
    1     295   1    0.00
    1     296   1    0.00
    1     297   1    0.00
    1     298   1    0.00
    1     299   1    0.00
    1     300   1    0.00
    1     301   1    0.00
    1     302   1    0.00
    1     303   1    0.00
    1     304   1    0.00
    1     305   1    0.00
    1     306   1    0.00
    1     307   1    0.00
    1     308   1    0.00
    1     309   1    0.00
    1     310   1    0.00
    1     311   1    0.00
    1     312   1    0.00
    1     313   1    0.00
    1     314   1    0.00
    1     315   1    0.00
    1     316   1    0.00
    1     317   1    0.00
    1     318   1    0.00
    1     319   1    0.00
    1     320   1    0.00
    1     321   1    0.00
    1     322   1    0.00
    1     323   1    0.00
    1     324   1    0.00
    1     325   1    0.00
    1     326   1    0.00
    1     327   1    0.00
    1     328   1    0.00
    1     329   1    0.00
    1     330   1    0.00
    1     331   1    0.00
    1     332   1    0.00
    1     333   1    0.00
    1     334   1    0.00
    1     335   1    0.00
    1     336   1    0.00
    1     337   1    0.00
    1     338   1    0.00
    1     339   1    0.00
    1     340   1    0.00
    1     341   1    0.00
    1     342   1    0.00
    1     343   1    0.00
    1     344   1    0.00
    1     345   1    0.00
    1     346   1    0.00
    1     347   1    0.00
    1     348   1    0.00
    1     349   1    0.00
    1     350   1    0.00
    1     351   1    0.00
    1     352   1    0.00
    1     353   1    0.00
    1     354   1    0.00
    1     355   1    0.00
    1     356   1    0.00
    1     357   1    0.00
    1     358   1    0.00
    1     359   1    0.00
    1     360   1    0.00
    1     361   1    0.00
    1     362   1    0.00
    1     363   1    0.00
    1     364   1    0.00
    1     365   1    0.00
    1     366   1    0.00
    1     367   1    0.00
    1     368   1    0.00
    1     369   1    0.00
    1     370   1    0.00
    1     371   1    0.00
    1     372   1    0.00
END PERIOD