# IC6 File Generated by iMOD [V5_0 X64 Optimized]

#General Options

BEGIN OPTIONS
END OPTIONS

#Initial Head Data

BEGIN GRIDDATA
 STRT LAYERED
  CONSTANT -5.0
  CONSTANT -5.0
  CONSTANT -5.0
END GRIDDATA
