BEGIN OPTIONS
END OPTIONS

BEGIN DIMENSIONS
    MAXBOUND 372
END DIMENSIONS

BEGIN PERIOD 1
    OPEN/CLOSE .\GWF_1\MODELINPUT\RIV6\RIV_T1.ARR 1.0 (FREE) -1
END PERIOD
