BEGIN OPTIONS
    BUDGET FILEOUT .\GWF_1\MODELOUTPUT\BUDGET\BUDGET.CBC
    HEAD FILEOUT .\GWF_1\MODELOUTPUT\HEAD\HEAD.HED
END OPTIONS

HEAD SAVE UNIT 51

BEGIN PERIOD 1
    SAVE HEAD ALL
    SAVE BUDGET ALL
END PERIOD
