# T-MODEL-F.NAM File Generated by iMOD [V5_4 X64 Optimized]

#General Options

BEGIN OPTIONS
 LIST .\GWF_1\T-MODEL-F.LST
END OPTIONS

#List of Packages

BEGIN PACKAGES
 DIS6 .\GWF_1\MODELINPUT\T-MODEL-F.DIS6
 IC6  .\GWF_1\MODELINPUT\T-MODEL-F.IC6
 NPF6 .\GWF_1\MODELINPUT\T-MODEL-F.NPF6
 OC6  .\GWF_1\MODELINPUT\T-MODEL-F.OC6
 STO6 .\GWF_1\MODELINPUT\T-MODEL-F.STO6
 DRN6 .\GWF_1\MODELINPUT\T-MODEL-F_SYS1.DRN6 DRN_SYS1
 RIV6 .\GWF_1\MODELINPUT\T-MODEL-F_SYS1.RIV6 RIV_SYS1
 RCH6 .\GWF_1\MODELINPUT\MSW.RCH6 RCH_MSW
END PACKAGES
