begin options
end options

begin griddata
  strt
    constant -2.0
end griddata
