begin options
  budget fileout GWF_1/GWF_1.cbc
  head fileout GWF_1/GWF_1.hds
end options

begin period 1
  save head last
  save budget last
end period
