begin options
end options

begin dimensions
  maxbound 15
end dimensions

begin period 1
        #layer  row  col      Q     boundname
             1    1    1      0       W_1
             1    2    1      0       W_2
             1    3    1      0       W_3
             1    4    1      0       W_4
             1    5    1      0       W_5
             1    1    2      0       W_6
             1    2    2      0       W_7
             1    3    2      0       W_8
             1    4    2      0       W_9
             1    5    2      0       W_10
			 1    1    3      0       W_11
             1    2    3      0       W_12
             1    3    3      0       W_13
             1    4    3      0       W_14
             1    5    3      0       W_15
end period
