# WEL6 File Generated by iMOD [V5_4 X64 Optimized]

#General Options

BEGIN OPTIONS
END OPTIONS

#General Dimensions
BEGIN DIMENSIONS
MAXBOUND 0
END DIMENSIONS

BEGIN PERIOD 1
END PERIOD
