# DRN6 File Generated by iMOD [V5_4 X64 Optimized]

#General Options

BEGIN OPTIONS
 SAVE_FLOWS
END OPTIONS

#General Dimensions

BEGIN DIMENSIONS
MAXBOUND 2
END DIMENSIONS

BEGIN PERIOD 1
    1     3     6    8.500000        100.0000         1
    1     3     7    8.500000        100.0000         1
END PERIOD
