# RIV6 File Generated by iMOD [V5_4 X64 Optimized]

#General Options

BEGIN OPTIONS
 SAVE_FLOWS
END OPTIONS

#General Dimensions

BEGIN DIMENSIONS
MAXBOUND 55
END DIMENSIONS

BEGIN PERIOD 1
         1        10         1    10.500   151.980     9.500  
         1        10         1    10.440    30.396     9.440  
         1         9         1    10.390   121.584     9.390  
         1         9         1    10.300   151.980     9.300  
         1         9         1    10.240    30.396     9.240  
         1         8         1    10.190   121.584     9.190  
         1         8         1    10.100   151.980     9.100  
         1         8         1    10.040    30.396     9.040  
         1         7         1     9.990   121.584     8.990  
         1         7         1     9.900   151.980     8.900  
         1         7         1     9.840    30.396     8.840  
         1         6         1     9.790   121.584     8.790  
         1         6         1     9.800   151.980     8.800  
         1         6         1     9.860    30.396     8.860  
         1         5         1     9.910   121.584     8.910  
         1         5         1    10.000   151.980     9.000  
         1         5         1    10.060    30.396     9.060  
         1         4         1    10.110   121.584     9.110  
         1         4         1    10.200   151.980     9.200  
         1         4         1    10.260    30.396     9.260  
         1         3         1    10.310   121.584     9.310  
         1         3         1    10.400   151.980     9.400  
         1         3         1    10.460    30.396     9.460  
         1         2         1    10.510   121.584     9.510  
         1         6         1     9.750   148.178     8.750  
         1         6         1     9.750    34.198     8.750  
         1         6         2     9.750   113.980     8.750  
         1         6         2     9.750   148.178     8.750  
         1         6         2     9.750    41.803     8.750  
         1         6         3     9.750   106.375     8.750  
         1         6         3     9.750   148.178     8.750  
         1         6         3     9.750    49.407     8.750  
         1         6         4     9.750    98.771     8.750  
         1         6         4     9.750   148.178     8.750  
         1         6         4     9.750    57.012     8.750  
         1         6         5     9.750    91.166     8.750  
         1         6         5     9.750   148.178     8.750  
         1         6         5     9.750    64.617     8.750  
         1         6         6     9.750    83.562     8.750  
         1         6         6     9.750   148.178     8.750  
         1         6         6     9.750    72.221     8.750  
         1         6         7     9.750    75.957     8.750  
         1         6         7     9.750   148.178     8.750  
         1         6         7     9.750    79.826     8.750  
         1         6         8     9.750    68.352     8.750  
         1         6         8     9.750   148.178     8.750  
         1         6         8     9.750    87.430     8.750  
         1         6         9     9.750    60.748     8.750  
         1         6         9     9.750    13.678     8.750  
         1         6         9     9.750    13.678     8.750  
         1         6         9     9.750    84.360     8.750  
         1         6         9     9.750    84.360     8.750  
         1         6         9     9.750    47.136     8.750  
         1         6        10     9.750    37.224     8.750  
         1         6        10     9.750    84.360     8.750  
END PERIOD
