# RIV6 File Generated by iMOD [V5_4 X64 Optimized]

#General Options

BEGIN OPTIONS
 SAVE_FLOWS
END OPTIONS

#General Dimensions

BEGIN DIMENSIONS
MAXBOUND 3
END DIMENSIONS

BEGIN PERIOD 1
    1     9     5    1000.00000        200.0000        1000.00000
    1     9     6    1000.00000        200.0000        1000.00000
    1     9     7    1000.00000        200.0000        1000.00000
END PERIOD
