# NPF6 File Generated by iMOD [V5_4 X64 Optimized]

#General Options

BEGIN OPTIONS
END OPTIONS

#Geology Options

BEGIN GRIDDATA
 ICELLTYPE LAYERED
  CONSTANT 0
 K LAYERED
  CONSTANT 0.1000000E+03     K_L1
 K33 LAYERED
  CONSTANT 0.1000000E+01     K33_L1
END GRIDDATA
