# RIV6 File Generated by iMOD [V5_4 X64 Optimized]

#General Options

BEGIN OPTIONS
 SAVE_FLOWS
END OPTIONS

#General Dimensions

BEGIN DIMENSIONS
MAXBOUND 55
END DIMENSIONS

BEGIN PERIOD 1
#                                  hriv    cond        bot
         1        10         1     11   891.421     8.200   
         1        10         1     10.9399999976158   178.284     8.200   
         1         9         1     10.8900001622736   713.137     8.200   
         1         9         1     10.8   891.421     8.147   
         1         9         1     10.7399999976158   178.284     8.083   
         1         8         1     10.6900001592934   713.137     8.030   
         1         8         1     10.6   891.421     7.928   
         1         8         1     10.5399999976158   178.284     7.855   
         1         7         1     10.4900001563132   713.137     7.795   
         1         7         1     10.4   891.421     7.710   
         1         7         1     10.3399999976158   178.284     7.666   
         1         6         1     10.2900001533329   713.137     7.629   
         1         6         1     10.3   891.421     7.635   
         1         6         1     10.3600000023842   178.284     7.676   
         1         5         1     10.4100001551211   713.137     7.710   
         1         5         1     10.5   891.421     7.798   
         1         5         1     10.5600000023842   178.284     7.871   
         1         4         1     10.6100001581013   713.137     7.931   
         1         4         1     10.7   891.421     8.034   
         1         4         1     10.7600000023842   178.284     8.100   
         1         3         1     10.8100001610816   713.137     8.156   
         1         3         1     10.9   891.421     8.200   
         1         3         1     10.9600000023842   178.284     8.200   
         1         2         1     11.0100001640618   713.137     8.200   
         1         6         1     10.2500003054738   869.120     7.800   
         1         6         1     10.2499999618158   200.586     7.800   
         1         6         2     10.25   668.534     7.800   
         1         6         2     10.25   869.120     7.800   
         1         6         2     10.2499998472631   245.190     7.800   
         1         6         3     10.25   623.930     7.800   
         1         6         3     10.2500003054738   869.120     7.759   
         1         6         3     10.2499996945262   289.793     7.737   
         1         6         4     10.25   579.327     7.720   
         1         6         4     10.25   869.120     7.649   
         1         6         4     10.2500002291054   334.397     7.600   
         1         6         5     10.25   534.723     7.564   
         1         6         5     10.2500003054738   869.120     7.510   
         1         6         5     10.2499999236315   379.000     7.459   
         1         6         6     10.25   490.119     7.423   
         1         6         6     10.25   869.120     7.371   
         1         6         6     10.2499998472631   423.604     7.318   
         1         6         7     10.25   445.516     7.282   
         1         6         7     10.2499996945262   869.120     7.252   
         1         6         7     10.2499996945262   468.207     7.211   
         1         6         8     10.25   400.912     7.185   
         1         6         8     10.25   869.120     7.200   
         1         6         8     10.2500002291054   512.811     7.200   
         1         6         9     10.25   356.309     7.200   
         1         6         9     10.25    80.226     7.200   
         1         6         9     10.25    80.226     7.200   
         1         6         9     10.25   494.805     7.200   
         1         6         9     10.25   494.805     7.200   
         1         6         9     10.25   276.473     7.200   
         1         6        10     10.25   218.332     7.200   
         1         6        10     10.25   494.805     7.200   
END PERIOD
