# RIV6 File Generated by iMOD [V5_4 X64 Optimized]

#General Options

BEGIN OPTIONS
 SAVE_FLOWS
END OPTIONS

#General Dimensions

BEGIN DIMENSIONS
MAXBOUND 55
END DIMENSIONS

BEGIN PERIOD 1
#                                  hriv    cond        bot
         1        10         1     9.200   891.421     8.200   
         1        10         1     9.200   178.284     8.200   
         1         9         1     9.200   713.137     8.200   
         1         9         1     9.147   891.421     8.147   
         1         9         1     9.083   178.284     8.083   
         1         8         1     9.030   713.137     8.030   
         1         8         1     8.928   891.421     7.928   
         1         8         1     8.855   178.284     7.855   
         1         7         1     8.795   713.137     7.795   
         1         7         1     8.710   891.421     7.710   
         1         7         1     8.666   178.284     7.666   
         1         6         1     8.629   713.137     7.629   
         1         6         1     8.635   891.421     7.635   
         1         6         1     8.676   178.284     7.676   
         1         5         1     8.710   713.137     7.710   
         1         5         1     8.798   891.421     7.798   
         1         5         1     8.871   178.284     7.871   
         1         4         1     8.931   713.137     7.931   
         1         4         1     9.034   891.421     8.034   
         1         4         1     9.100   178.284     8.100   
         1         3         1     9.156   713.137     8.156   
         1         3         1     9.200   891.421     8.200   
         1         3         1     9.200   178.284     8.200   
         1         2         1     9.200   713.137     8.200   
         1         6         1     8.800   869.120     7.800   
         1         6         1     8.800   200.586     7.800   
         1         6         2     8.800   668.534     7.800   
         1         6         2     8.800   869.120     7.800   
         1         6         2     8.800   245.190     7.800   
         1         6         3     8.800   623.930     7.800   
         1         6         3     8.759   869.120     7.759   
         1         6         3     8.737   289.793     7.737   
         1         6         4     8.720   579.327     7.720   
         1         6         4     8.649   869.120     7.649   
         1         6         4     8.600   334.397     7.600   
         1         6         5     8.564   534.723     7.564   
         1         6         5     8.510   869.120     7.510   
         1         6         5     8.459   379.000     7.459   
         1         6         6     8.423   490.119     7.423   
         1         6         6     8.371   869.120     7.371   
         1         6         6     8.318   423.604     7.318   
         1         6         7     8.282   445.516     7.282   
         1         6         7     8.252   869.120     7.252   
         1         6         7     8.211   468.207     7.211   
         1         6         8     8.185   400.912     7.185   
         1         6         8     8.200   869.120     7.200   
         1         6         8     8.200   512.811     7.200   
         1         6         9     8.200   356.309     7.200   
         1         6         9     8.200    80.226     7.200   
         1         6         9     8.200    80.226     7.200   
         1         6         9     8.200   494.805     7.200   
         1         6         9     8.200   494.805     7.200   
         1         6         9     8.200   276.473     7.200   
         1         6        10     8.200   218.332     7.200   
         1         6        10     8.200   494.805     7.200   
END PERIOD
