# RIV6 File Generated by iMOD [V5_4 X64 Optimized]

#General Options

BEGIN OPTIONS
 SAVE_FLOWS
END OPTIONS

#General Dimensions

BEGIN DIMENSIONS
MAXBOUND 3
END DIMENSIONS

BEGIN PERIOD 1
    1     9     5    8.5        200.0000        7.50000
    1     9     6    8.5        200.0000        7.50000
    1     9     7    8.5        200.0000        7.50000
END PERIOD
