# RIV6 File Generated by iMOD [V5_4 X64 Optimized]

#General Options

BEGIN OPTIONS
 SAVE_FLOWS
END OPTIONS

#General Dimensions

BEGIN DIMENSIONS
MAXBOUND 1
END DIMENSIONS

BEGIN PERIOD 1
    1     9     5    1000.00000        200.0000        1000.00000         1 I

END PERIOD
