# DRN6 File Generated by iMOD [V5_4 X64 Optimized]

#General Options

BEGIN OPTIONS
 SAVE_FLOWS
END OPTIONS

#General Dimensions

BEGIN DIMENSIONS
MAXBOUND 1
END DIMENSIONS

BEGIN PERIOD 1
    1     3     6    1000.0        100.0000
END PERIOD
