# IMS6 File Generated by iMOD [V5_4 X64 Optimized]

#General options

BEGIN OPTIONS
 PRINT_OPTION SUMMARY
 COMPLEXITY SIMPLE      
 CSV_OUTER_OUTPUT FILEOUT MFSIM_OUTER.CSV
 CSV_INNER_OUTPUT FILEOUT MFSIM_INNER.CSV
END OPTIONS

#Nonlinear options

BEGIN NONLINEAR
 OUTER_DVCLOSE   0.1000000E-03
 OUTER_MAXIMUM        150
END NONLINEAR

#Linear options

BEGIN LINEAR
 INNER_MAXIMUM         30
 INNER_DVCLOSE   0.1000000E-03
 INNER_RCLOSE   0.1000000    
END LINEAR
