# TDIS6 File Generated by iMOD [V5_4 X64 Optimized]

#General Options

BEGIN OPTIONS
 TIME_UNITS DAYS
 START_DATE_TIME 1994-1-1T00:00:00TZD+01:00
END OPTIONS

#Time Dimensions

BEGIN DIMENSIONS
 NPER 31
END DIMENSIONS

#Stress periods

BEGIN PERIODDATA
 1.000000,1,1.000000 [1994-01-01 00:00:00] [1994-01-02 00:00:00]
 1.000000,1,1.000000 [1994-01-02 00:00:00] [1994-01-03 00:00:00]
 1.000000,1,1.000000 [1994-01-03 00:00:00] [1994-01-04 00:00:00]
 1.000000,1,1.000000 [1994-01-04 00:00:00] [1994-01-05 00:00:00]
 1.000000,1,1.000000 [1994-01-05 00:00:00] [1994-01-06 00:00:00]
 1.000000,1,1.000000 [1994-01-06 00:00:00] [1994-01-07 00:00:00]
 1.000000,1,1.000000 [1994-01-07 00:00:00] [1994-01-08 00:00:00]
 1.000000,1,1.000000 [1994-01-08 00:00:00] [1994-01-09 00:00:00]
 1.000000,1,1.000000 [1994-01-09 00:00:00] [1994-01-10 00:00:00]
 1.000000,1,1.000000 [1994-01-10 00:00:00] [1994-01-11 00:00:00]
 1.000000,1,1.000000 [1994-01-11 00:00:00] [1994-01-12 00:00:00]
 1.000000,1,1.000000 [1994-01-12 00:00:00] [1994-01-13 00:00:00]
 1.000000,1,1.000000 [1994-01-13 00:00:00] [1994-01-14 00:00:00]
 1.000000,1,1.000000 [1994-01-14 00:00:00] [1994-01-15 00:00:00]
 1.000000,1,1.000000 [1994-01-15 00:00:00] [1994-01-16 00:00:00]
 1.000000,1,1.000000 [1994-01-16 00:00:00] [1994-01-17 00:00:00]
 1.000000,1,1.000000 [1994-01-17 00:00:00] [1994-01-18 00:00:00]
 1.000000,1,1.000000 [1994-01-18 00:00:00] [1994-01-19 00:00:00]
 1.000000,1,1.000000 [1994-01-19 00:00:00] [1994-01-20 00:00:00]
 1.000000,1,1.000000 [1994-01-20 00:00:00] [1994-01-21 00:00:00]
 1.000000,1,1.000000 [1994-01-21 00:00:00] [1994-01-22 00:00:00]
 1.000000,1,1.000000 [1994-01-22 00:00:00] [1994-01-23 00:00:00]
 1.000000,1,1.000000 [1994-01-23 00:00:00] [1994-01-24 00:00:00]
 1.000000,1,1.000000 [1994-01-24 00:00:00] [1994-01-25 00:00:00]
 1.000000,1,1.000000 [1994-01-25 00:00:00] [1994-01-26 00:00:00]
 1.000000,1,1.000000 [1994-01-26 00:00:00] [1994-01-27 00:00:00]
 1.000000,1,1.000000 [1994-01-27 00:00:00] [1994-01-28 00:00:00]
 1.000000,1,1.000000 [1994-01-28 00:00:00] [1994-01-29 00:00:00]
 1.000000,1,1.000000 [1994-01-29 00:00:00] [1994-01-30 00:00:00]
 1.000000,1,1.000000 [1994-01-30 00:00:00] [1994-01-31 00:00:00]
 1.000000,1,1.000000 [1994-01-31 00:00:00] [1994-02-01 00:00:00]
END PERIODDATA
