# RIV6 File Generated by iMOD [V5_4 X64 Optimized]

#General Options

BEGIN OPTIONS
 SAVE_FLOWS
END OPTIONS

#General Dimensions

BEGIN DIMENSIONS
MAXBOUND 1
END DIMENSIONS

BEGIN PERIOD 1
    1     5     5    -2
END PERIOD

BEGIN PERIOD 40
    1     5     5    -3
END PERIOD

BEGIN PERIOD 80
    1     5     5    -4
END PERIOD


BEGIN PERIOD 340
    1     5     5    -8
END PERIOD