# RIV6 File Generated by iMOD [V5_4 X64 Optimized]

#General Options

BEGIN OPTIONS
 SAVE_FLOWS
END OPTIONS

#General Dimensions

BEGIN DIMENSIONS
MAXBOUND 3
END DIMENSIONS

BEGIN PERIOD 1
    1     9     5    8.500000        200.0000        7.500000         1 I
    1     9     6    8.500000        200.0000        7.500000         1 I
    1     9     7    8.500000        200.0000        7.500000         1 I
END PERIOD

BEGIN PERIOD 153
    1     9     5    7.600000        200.0000        7.500000         1 I
    1     9     6    7.600000        200.0000        7.500000         1 I
    1     9     7    7.600000        200.0000        7.500000         1 I
END PERIOD