# RIV6 File Generated by iMOD [V5_4 X64 Optimized]

#General Options

BEGIN OPTIONS
 SAVE_FLOWS
END OPTIONS

#General Dimensions

BEGIN DIMENSIONS
MAXBOUND 55
END DIMENSIONS

BEGIN PERIOD 1
         1        10         1     9.200   891.421     0.0   
         1        10         1     9.200   178.284     0.0   
         1         9         1     9.200   713.137     0.0   
         1         9         1     9.147   891.421     0.0   
         1         9         1     9.083   178.284     0.0   
         1         8         1     9.030   713.137     0.0   
         1         8         1     8.928   891.421     0.0   
         1         8         1     8.855   178.284     0.0   
         1         7         1     8.795   713.137     0.0   
         1         7         1     8.710   891.421     0.0   
         1         7         1     8.666   178.284     0.0   
         1         6         1     8.629   713.137     0.0   
         1         6         1     8.635   891.421     0.0   
         1         6         1     8.676   178.284     0.0   
         1         5         1     8.710   713.137     0.0   
         1         5         1     8.798   891.421     0.0   
         1         5         1     8.871   178.284     0.0   
         1         4         1     8.931   713.137     0.0   
         1         4         1     9.034   891.421     0.0   
         1         4         1     9.100   178.284     0.0   
         1         3         1     9.156   713.137     0.0   
         1         3         1     9.200   891.421     0.0   
         1         3         1     9.200   178.284     0.0   
         1         2         1     9.200   713.137     0.0   
         1         6         1     8.800   869.120     0.0   
         1         6         1     8.800   200.586     0.0   
         1         6         2     8.800   668.534     0.0   
         1         6         2     8.800   869.120     0.0   
         1         6         2     8.800   245.190     0.0   
         1         6         3     8.800   623.930     0.0   
         1         6         3     8.759   869.120     0.0   
         1         6         3     8.737   289.793     0.0   
         1         6         4     8.720   579.327     0.0   
         1         6         4     8.649   869.120     0.0   
         1         6         4     8.600   334.397     0.0   
         1         6         5     8.564   534.723     0.0   
         1         6         5     8.510   869.120     0.0   
         1         6         5     8.459   379.000     0.0   
         1         6         6     8.423   490.119     0.0   
         1         6         6     8.371   869.120     0.0   
         1         6         6     8.318   423.604     0.0   
         1         6         7     8.282   445.516     0.0   
         1         6         7     8.252   869.120     0.0   
         1         6         7     8.211   468.207     0.0   
         1         6         8     8.185   400.912     0.0   
         1         6         8     8.200   869.120     0.0   
         1         6         8     8.200   512.811     0.0   
         1         6         9     8.200   356.309     0.0   
         1         6         9     8.200    80.226     0.0   
         1         6         9     8.200    80.226     0.0   
         1         6         9     8.200   494.805     0.0   
         1         6         9     8.200   494.805     0.0   
         1         6         9     8.200   276.473     0.0   
         1         6        10     8.200   218.332     0.0   
         1         6        10     8.200   494.805     0.0   
END PERIOD

BEGIN PERIOD 100
         1        10         1     8.0   891.421     0.0   
         1        10         1     8.0   178.284     0.0   
         1         9         1     8.0   713.137     0.0   
         1         9         1     8.0   891.421     0.0   
         1         9         1     8.0   178.284     0.0   
         1         8         1     8.0   713.137     0.0   
         1         8         1     8.0   891.421     0.0   
         1         8         1     8.0   178.284     0.0   
         1         7         1     8.0   713.137     0.0   
         1         7         1     8.0   891.421     0.0   
         1         7         1     8.0   178.284     0.0   
         1         6         1     8.0   713.137     0.0   
         1         6         1     8.0   891.421     0.0   
         1         6         1     8.0   178.284     0.0   
         1         5         1     8.0   713.137     0.0   
         1         5         1     8.0   891.421     0.0   
         1         5         1     8.0   178.284     0.0   
         1         4         1     8.0   713.137     0.0   
         1         4         1     8.0   891.421     0.0   
         1         4         1     8.0   178.284     0.0   
         1         3         1     8.0   713.137     0.0   
         1         3         1     8.0   891.421     0.0   
         1         3         1     8.0   178.284     0.0   
         1         2         1     8.0   713.137     0.0   
         1         6         1     8.0   869.120     0.0   
         1         6         1     8.0   200.586     0.0   
         1         6         2     8.0   668.534     0.0   
         1         6         2     8.0   869.120     0.0   
         1         6         2     8.0   245.190     0.0   
         1         6         3     8.0   623.930     0.0   
         1         6         3     8.0   869.120     0.0   
         1         6         3     8.0   289.793     0.0   
         1         6         4     8.0   579.327     0.0   
         1         6         4     8.0   869.120     0.0   
         1         6         4     8.0   334.397     0.0   
         1         6         5     8.0   534.723     0.0   
         1         6         5     8.0   869.120     0.0   
         1         6         5     8.0   379.000     0.0   
         1         6         6     8.0   490.119     0.0   
         1         6         6     8.0   869.120     0.0   
         1         6         6     8.0   423.604     0.0   
         1         6         7     8.0   445.516     0.0   
         1         6         7     8.0   869.120     0.0   
         1         6         7     8.0   468.207     0.0   
         1         6         8     8.0   400.912     0.0   
         1         6         8     8.0   869.120     0.0   
         1         6         8     8.0   512.811     0.0   
         1         6         9     8.0   356.309     0.0   
         1         6         9     8.0    80.226     0.0   
         1         6         9     8.0    80.226     0.0   
         1         6         9     8.0   494.805     0.0   
         1         6         9     8.0   494.805     0.0   
         1         6         9     8.0   276.473     0.0   
         1         6        10     8.0   218.332     0.0   
         1         6        10     8.0   494.805     0.0   
END PERIOD
