# STO6 File Generated by iMOD [V5_4 X64 Optimized]

#General Options

BEGIN OPTIONS
 STORAGECOEFFICIENT
END OPTIONS

#Geology Options

BEGIN GRIDDATA
 ICONVERT LAYERED
  CONSTANT 0
 SS LAYERED
  CONSTANT 0.1500000E+00     SS_L1
END GRIDDATA

#Time Storage Options

BEGIN PERIOD 1
 TRANSIENT
END PERIOD
BEGIN PERIOD 2
 TRANSIENT
END PERIOD
BEGIN PERIOD 3
 TRANSIENT
END PERIOD
BEGIN PERIOD 4
 TRANSIENT
END PERIOD
BEGIN PERIOD 5
 TRANSIENT
END PERIOD
BEGIN PERIOD 6
 TRANSIENT
END PERIOD
BEGIN PERIOD 7
 TRANSIENT
END PERIOD
BEGIN PERIOD 8
 TRANSIENT
END PERIOD
BEGIN PERIOD 9
 TRANSIENT
END PERIOD
BEGIN PERIOD 10
 TRANSIENT
END PERIOD
BEGIN PERIOD 11
 TRANSIENT
END PERIOD
BEGIN PERIOD 12
 TRANSIENT
END PERIOD
BEGIN PERIOD 13
 TRANSIENT
END PERIOD
BEGIN PERIOD 14
 TRANSIENT
END PERIOD
BEGIN PERIOD 15
 TRANSIENT
END PERIOD
BEGIN PERIOD 16
 TRANSIENT
END PERIOD
BEGIN PERIOD 17
 TRANSIENT
END PERIOD
BEGIN PERIOD 18
 TRANSIENT
END PERIOD
BEGIN PERIOD 19
 TRANSIENT
END PERIOD
BEGIN PERIOD 20
 TRANSIENT
END PERIOD
BEGIN PERIOD 21
 TRANSIENT
END PERIOD
BEGIN PERIOD 22
 TRANSIENT
END PERIOD
BEGIN PERIOD 23
 TRANSIENT
END PERIOD
BEGIN PERIOD 24
 TRANSIENT
END PERIOD
BEGIN PERIOD 25
 TRANSIENT
END PERIOD
BEGIN PERIOD 26
 TRANSIENT
END PERIOD
BEGIN PERIOD 27
 TRANSIENT
END PERIOD
BEGIN PERIOD 28
 TRANSIENT
END PERIOD
BEGIN PERIOD 29
 TRANSIENT
END PERIOD
BEGIN PERIOD 30
 TRANSIENT
END PERIOD
BEGIN PERIOD 31
 TRANSIENT
END PERIOD
BEGIN PERIOD 32
 TRANSIENT
END PERIOD
BEGIN PERIOD 33
 TRANSIENT
END PERIOD
BEGIN PERIOD 34
 TRANSIENT
END PERIOD
BEGIN PERIOD 35
 TRANSIENT
END PERIOD
BEGIN PERIOD 36
 TRANSIENT
END PERIOD
BEGIN PERIOD 37
 TRANSIENT
END PERIOD
BEGIN PERIOD 38
 TRANSIENT
END PERIOD
BEGIN PERIOD 39
 TRANSIENT
END PERIOD
BEGIN PERIOD 40
 TRANSIENT
END PERIOD
BEGIN PERIOD 41
 TRANSIENT
END PERIOD
BEGIN PERIOD 42
 TRANSIENT
END PERIOD
BEGIN PERIOD 43
 TRANSIENT
END PERIOD
BEGIN PERIOD 44
 TRANSIENT
END PERIOD
BEGIN PERIOD 45
 TRANSIENT
END PERIOD
BEGIN PERIOD 46
 TRANSIENT
END PERIOD
BEGIN PERIOD 47
 TRANSIENT
END PERIOD
BEGIN PERIOD 48
 TRANSIENT
END PERIOD
BEGIN PERIOD 49
 TRANSIENT
END PERIOD
BEGIN PERIOD 50
 TRANSIENT
END PERIOD
BEGIN PERIOD 51
 TRANSIENT
END PERIOD
BEGIN PERIOD 52
 TRANSIENT
END PERIOD
BEGIN PERIOD 53
 TRANSIENT
END PERIOD
BEGIN PERIOD 54
 TRANSIENT
END PERIOD
BEGIN PERIOD 55
 TRANSIENT
END PERIOD
BEGIN PERIOD 56
 TRANSIENT
END PERIOD
BEGIN PERIOD 57
 TRANSIENT
END PERIOD
BEGIN PERIOD 58
 TRANSIENT
END PERIOD
BEGIN PERIOD 59
 TRANSIENT
END PERIOD
BEGIN PERIOD 60
 TRANSIENT
END PERIOD
BEGIN PERIOD 61
 TRANSIENT
END PERIOD
BEGIN PERIOD 62
 TRANSIENT
END PERIOD
BEGIN PERIOD 63
 TRANSIENT
END PERIOD
BEGIN PERIOD 64
 TRANSIENT
END PERIOD
BEGIN PERIOD 65
 TRANSIENT
END PERIOD
BEGIN PERIOD 66
 TRANSIENT
END PERIOD
BEGIN PERIOD 67
 TRANSIENT
END PERIOD
BEGIN PERIOD 68
 TRANSIENT
END PERIOD
BEGIN PERIOD 69
 TRANSIENT
END PERIOD
BEGIN PERIOD 70
 TRANSIENT
END PERIOD
BEGIN PERIOD 71
 TRANSIENT
END PERIOD
BEGIN PERIOD 72
 TRANSIENT
END PERIOD
BEGIN PERIOD 73
 TRANSIENT
END PERIOD
BEGIN PERIOD 74
 TRANSIENT
END PERIOD
BEGIN PERIOD 75
 TRANSIENT
END PERIOD
BEGIN PERIOD 76
 TRANSIENT
END PERIOD
BEGIN PERIOD 77
 TRANSIENT
END PERIOD
BEGIN PERIOD 78
 TRANSIENT
END PERIOD
BEGIN PERIOD 79
 TRANSIENT
END PERIOD
BEGIN PERIOD 80
 TRANSIENT
END PERIOD
BEGIN PERIOD 81
 TRANSIENT
END PERIOD
BEGIN PERIOD 82
 TRANSIENT
END PERIOD
BEGIN PERIOD 83
 TRANSIENT
END PERIOD
BEGIN PERIOD 84
 TRANSIENT
END PERIOD
BEGIN PERIOD 85
 TRANSIENT
END PERIOD
BEGIN PERIOD 86
 TRANSIENT
END PERIOD
BEGIN PERIOD 87
 TRANSIENT
END PERIOD
BEGIN PERIOD 88
 TRANSIENT
END PERIOD
BEGIN PERIOD 89
 TRANSIENT
END PERIOD
BEGIN PERIOD 90
 TRANSIENT
END PERIOD
BEGIN PERIOD 91
 TRANSIENT
END PERIOD
BEGIN PERIOD 92
 TRANSIENT
END PERIOD
BEGIN PERIOD 93
 TRANSIENT
END PERIOD
BEGIN PERIOD 94
 TRANSIENT
END PERIOD
BEGIN PERIOD 95
 TRANSIENT
END PERIOD
BEGIN PERIOD 96
 TRANSIENT
END PERIOD
BEGIN PERIOD 97
 TRANSIENT
END PERIOD
BEGIN PERIOD 98
 TRANSIENT
END PERIOD
BEGIN PERIOD 99
 TRANSIENT
END PERIOD
BEGIN PERIOD 100
 TRANSIENT
END PERIOD
BEGIN PERIOD 101
 TRANSIENT
END PERIOD
BEGIN PERIOD 102
 TRANSIENT
END PERIOD
BEGIN PERIOD 103
 TRANSIENT
END PERIOD
BEGIN PERIOD 104
 TRANSIENT
END PERIOD
BEGIN PERIOD 105
 TRANSIENT
END PERIOD
BEGIN PERIOD 106
 TRANSIENT
END PERIOD
BEGIN PERIOD 107
 TRANSIENT
END PERIOD
BEGIN PERIOD 108
 TRANSIENT
END PERIOD
BEGIN PERIOD 109
 TRANSIENT
END PERIOD
BEGIN PERIOD 110
 TRANSIENT
END PERIOD
BEGIN PERIOD 111
 TRANSIENT
END PERIOD
BEGIN PERIOD 112
 TRANSIENT
END PERIOD
BEGIN PERIOD 113
 TRANSIENT
END PERIOD
BEGIN PERIOD 114
 TRANSIENT
END PERIOD
BEGIN PERIOD 115
 TRANSIENT
END PERIOD
BEGIN PERIOD 116
 TRANSIENT
END PERIOD
BEGIN PERIOD 117
 TRANSIENT
END PERIOD
BEGIN PERIOD 118
 TRANSIENT
END PERIOD
BEGIN PERIOD 119
 TRANSIENT
END PERIOD
BEGIN PERIOD 120
 TRANSIENT
END PERIOD
BEGIN PERIOD 121
 TRANSIENT
END PERIOD
BEGIN PERIOD 122
 TRANSIENT
END PERIOD
BEGIN PERIOD 123
 TRANSIENT
END PERIOD
BEGIN PERIOD 124
 TRANSIENT
END PERIOD
BEGIN PERIOD 125
 TRANSIENT
END PERIOD
BEGIN PERIOD 126
 TRANSIENT
END PERIOD
BEGIN PERIOD 127
 TRANSIENT
END PERIOD
BEGIN PERIOD 128
 TRANSIENT
END PERIOD
BEGIN PERIOD 129
 TRANSIENT
END PERIOD
BEGIN PERIOD 130
 TRANSIENT
END PERIOD
BEGIN PERIOD 131
 TRANSIENT
END PERIOD
BEGIN PERIOD 132
 TRANSIENT
END PERIOD
BEGIN PERIOD 133
 TRANSIENT
END PERIOD
BEGIN PERIOD 134
 TRANSIENT
END PERIOD
BEGIN PERIOD 135
 TRANSIENT
END PERIOD
BEGIN PERIOD 136
 TRANSIENT
END PERIOD
BEGIN PERIOD 137
 TRANSIENT
END PERIOD
BEGIN PERIOD 138
 TRANSIENT
END PERIOD
BEGIN PERIOD 139
 TRANSIENT
END PERIOD
BEGIN PERIOD 140
 TRANSIENT
END PERIOD
BEGIN PERIOD 141
 TRANSIENT
END PERIOD
BEGIN PERIOD 142
 TRANSIENT
END PERIOD
BEGIN PERIOD 143
 TRANSIENT
END PERIOD
BEGIN PERIOD 144
 TRANSIENT
END PERIOD
BEGIN PERIOD 145
 TRANSIENT
END PERIOD
BEGIN PERIOD 146
 TRANSIENT
END PERIOD
BEGIN PERIOD 147
 TRANSIENT
END PERIOD
BEGIN PERIOD 148
 TRANSIENT
END PERIOD
BEGIN PERIOD 149
 TRANSIENT
END PERIOD
BEGIN PERIOD 150
 TRANSIENT
END PERIOD
BEGIN PERIOD 151
 TRANSIENT
END PERIOD
BEGIN PERIOD 152
 TRANSIENT
END PERIOD
BEGIN PERIOD 153
 TRANSIENT
END PERIOD
BEGIN PERIOD 154
 TRANSIENT
END PERIOD
BEGIN PERIOD 155
 TRANSIENT
END PERIOD
BEGIN PERIOD 156
 TRANSIENT
END PERIOD
BEGIN PERIOD 157
 TRANSIENT
END PERIOD
BEGIN PERIOD 158
 TRANSIENT
END PERIOD
BEGIN PERIOD 159
 TRANSIENT
END PERIOD
BEGIN PERIOD 160
 TRANSIENT
END PERIOD
BEGIN PERIOD 161
 TRANSIENT
END PERIOD
BEGIN PERIOD 162
 TRANSIENT
END PERIOD
BEGIN PERIOD 163
 TRANSIENT
END PERIOD
BEGIN PERIOD 164
 TRANSIENT
END PERIOD
BEGIN PERIOD 165
 TRANSIENT
END PERIOD
BEGIN PERIOD 166
 TRANSIENT
END PERIOD
BEGIN PERIOD 167
 TRANSIENT
END PERIOD
BEGIN PERIOD 168
 TRANSIENT
END PERIOD
BEGIN PERIOD 169
 TRANSIENT
END PERIOD
BEGIN PERIOD 170
 TRANSIENT
END PERIOD
BEGIN PERIOD 171
 TRANSIENT
END PERIOD
BEGIN PERIOD 172
 TRANSIENT
END PERIOD
BEGIN PERIOD 173
 TRANSIENT
END PERIOD
BEGIN PERIOD 174
 TRANSIENT
END PERIOD
BEGIN PERIOD 175
 TRANSIENT
END PERIOD
BEGIN PERIOD 176
 TRANSIENT
END PERIOD
BEGIN PERIOD 177
 TRANSIENT
END PERIOD
BEGIN PERIOD 178
 TRANSIENT
END PERIOD
BEGIN PERIOD 179
 TRANSIENT
END PERIOD
BEGIN PERIOD 180
 TRANSIENT
END PERIOD
BEGIN PERIOD 181
 TRANSIENT
END PERIOD
BEGIN PERIOD 182
 TRANSIENT
END PERIOD
BEGIN PERIOD 183
 TRANSIENT
END PERIOD
BEGIN PERIOD 184
 TRANSIENT
END PERIOD
BEGIN PERIOD 185
 TRANSIENT
END PERIOD
BEGIN PERIOD 186
 TRANSIENT
END PERIOD
BEGIN PERIOD 187
 TRANSIENT
END PERIOD
BEGIN PERIOD 188
 TRANSIENT
END PERIOD
BEGIN PERIOD 189
 TRANSIENT
END PERIOD
BEGIN PERIOD 190
 TRANSIENT
END PERIOD
BEGIN PERIOD 191
 TRANSIENT
END PERIOD
BEGIN PERIOD 192
 TRANSIENT
END PERIOD
BEGIN PERIOD 193
 TRANSIENT
END PERIOD
BEGIN PERIOD 194
 TRANSIENT
END PERIOD
BEGIN PERIOD 195
 TRANSIENT
END PERIOD
BEGIN PERIOD 196
 TRANSIENT
END PERIOD
BEGIN PERIOD 197
 TRANSIENT
END PERIOD
BEGIN PERIOD 198
 TRANSIENT
END PERIOD
BEGIN PERIOD 199
 TRANSIENT
END PERIOD
BEGIN PERIOD 200
 TRANSIENT
END PERIOD
BEGIN PERIOD 201
 TRANSIENT
END PERIOD
BEGIN PERIOD 202
 TRANSIENT
END PERIOD
BEGIN PERIOD 203
 TRANSIENT
END PERIOD
BEGIN PERIOD 204
 TRANSIENT
END PERIOD
BEGIN PERIOD 205
 TRANSIENT
END PERIOD
BEGIN PERIOD 206
 TRANSIENT
END PERIOD
BEGIN PERIOD 207
 TRANSIENT
END PERIOD
BEGIN PERIOD 208
 TRANSIENT
END PERIOD
BEGIN PERIOD 209
 TRANSIENT
END PERIOD
BEGIN PERIOD 210
 TRANSIENT
END PERIOD
BEGIN PERIOD 211
 TRANSIENT
END PERIOD
BEGIN PERIOD 212
 TRANSIENT
END PERIOD
BEGIN PERIOD 213
 TRANSIENT
END PERIOD
BEGIN PERIOD 214
 TRANSIENT
END PERIOD
BEGIN PERIOD 215
 TRANSIENT
END PERIOD
BEGIN PERIOD 216
 TRANSIENT
END PERIOD
BEGIN PERIOD 217
 TRANSIENT
END PERIOD
BEGIN PERIOD 218
 TRANSIENT
END PERIOD
BEGIN PERIOD 219
 TRANSIENT
END PERIOD
BEGIN PERIOD 220
 TRANSIENT
END PERIOD
BEGIN PERIOD 221
 TRANSIENT
END PERIOD
BEGIN PERIOD 222
 TRANSIENT
END PERIOD
BEGIN PERIOD 223
 TRANSIENT
END PERIOD
BEGIN PERIOD 224
 TRANSIENT
END PERIOD
BEGIN PERIOD 225
 TRANSIENT
END PERIOD
BEGIN PERIOD 226
 TRANSIENT
END PERIOD
BEGIN PERIOD 227
 TRANSIENT
END PERIOD
BEGIN PERIOD 228
 TRANSIENT
END PERIOD
BEGIN PERIOD 229
 TRANSIENT
END PERIOD
BEGIN PERIOD 230
 TRANSIENT
END PERIOD
BEGIN PERIOD 231
 TRANSIENT
END PERIOD
BEGIN PERIOD 232
 TRANSIENT
END PERIOD
BEGIN PERIOD 233
 TRANSIENT
END PERIOD
BEGIN PERIOD 234
 TRANSIENT
END PERIOD
BEGIN PERIOD 235
 TRANSIENT
END PERIOD
BEGIN PERIOD 236
 TRANSIENT
END PERIOD
BEGIN PERIOD 237
 TRANSIENT
END PERIOD
BEGIN PERIOD 238
 TRANSIENT
END PERIOD
BEGIN PERIOD 239
 TRANSIENT
END PERIOD
BEGIN PERIOD 240
 TRANSIENT
END PERIOD
BEGIN PERIOD 241
 TRANSIENT
END PERIOD
BEGIN PERIOD 242
 TRANSIENT
END PERIOD
BEGIN PERIOD 243
 TRANSIENT
END PERIOD
BEGIN PERIOD 244
 TRANSIENT
END PERIOD
BEGIN PERIOD 245
 TRANSIENT
END PERIOD
BEGIN PERIOD 246
 TRANSIENT
END PERIOD
BEGIN PERIOD 247
 TRANSIENT
END PERIOD
BEGIN PERIOD 248
 TRANSIENT
END PERIOD
BEGIN PERIOD 249
 TRANSIENT
END PERIOD
BEGIN PERIOD 250
 TRANSIENT
END PERIOD
BEGIN PERIOD 251
 TRANSIENT
END PERIOD
BEGIN PERIOD 252
 TRANSIENT
END PERIOD
BEGIN PERIOD 253
 TRANSIENT
END PERIOD
BEGIN PERIOD 254
 TRANSIENT
END PERIOD
BEGIN PERIOD 255
 TRANSIENT
END PERIOD
BEGIN PERIOD 256
 TRANSIENT
END PERIOD
BEGIN PERIOD 257
 TRANSIENT
END PERIOD
BEGIN PERIOD 258
 TRANSIENT
END PERIOD
BEGIN PERIOD 259
 TRANSIENT
END PERIOD
BEGIN PERIOD 260
 TRANSIENT
END PERIOD
BEGIN PERIOD 261
 TRANSIENT
END PERIOD
BEGIN PERIOD 262
 TRANSIENT
END PERIOD
BEGIN PERIOD 263
 TRANSIENT
END PERIOD
BEGIN PERIOD 264
 TRANSIENT
END PERIOD
BEGIN PERIOD 265
 TRANSIENT
END PERIOD
BEGIN PERIOD 266
 TRANSIENT
END PERIOD
BEGIN PERIOD 267
 TRANSIENT
END PERIOD
BEGIN PERIOD 268
 TRANSIENT
END PERIOD
BEGIN PERIOD 269
 TRANSIENT
END PERIOD
BEGIN PERIOD 270
 TRANSIENT
END PERIOD
BEGIN PERIOD 271
 TRANSIENT
END PERIOD
BEGIN PERIOD 272
 TRANSIENT
END PERIOD
BEGIN PERIOD 273
 TRANSIENT
END PERIOD
BEGIN PERIOD 274
 TRANSIENT
END PERIOD
BEGIN PERIOD 275
 TRANSIENT
END PERIOD
BEGIN PERIOD 276
 TRANSIENT
END PERIOD
BEGIN PERIOD 277
 TRANSIENT
END PERIOD
BEGIN PERIOD 278
 TRANSIENT
END PERIOD
BEGIN PERIOD 279
 TRANSIENT
END PERIOD
BEGIN PERIOD 280
 TRANSIENT
END PERIOD
BEGIN PERIOD 281
 TRANSIENT
END PERIOD
BEGIN PERIOD 282
 TRANSIENT
END PERIOD
BEGIN PERIOD 283
 TRANSIENT
END PERIOD
BEGIN PERIOD 284
 TRANSIENT
END PERIOD
BEGIN PERIOD 285
 TRANSIENT
END PERIOD
BEGIN PERIOD 286
 TRANSIENT
END PERIOD
BEGIN PERIOD 287
 TRANSIENT
END PERIOD
BEGIN PERIOD 288
 TRANSIENT
END PERIOD
BEGIN PERIOD 289
 TRANSIENT
END PERIOD
BEGIN PERIOD 290
 TRANSIENT
END PERIOD
BEGIN PERIOD 291
 TRANSIENT
END PERIOD
BEGIN PERIOD 292
 TRANSIENT
END PERIOD
BEGIN PERIOD 293
 TRANSIENT
END PERIOD
BEGIN PERIOD 294
 TRANSIENT
END PERIOD
BEGIN PERIOD 295
 TRANSIENT
END PERIOD
BEGIN PERIOD 296
 TRANSIENT
END PERIOD
BEGIN PERIOD 297
 TRANSIENT
END PERIOD
BEGIN PERIOD 298
 TRANSIENT
END PERIOD
BEGIN PERIOD 299
 TRANSIENT
END PERIOD
BEGIN PERIOD 300
 TRANSIENT
END PERIOD
BEGIN PERIOD 301
 TRANSIENT
END PERIOD
BEGIN PERIOD 302
 TRANSIENT
END PERIOD
BEGIN PERIOD 303
 TRANSIENT
END PERIOD
BEGIN PERIOD 304
 TRANSIENT
END PERIOD
BEGIN PERIOD 305
 TRANSIENT
END PERIOD
BEGIN PERIOD 306
 TRANSIENT
END PERIOD
BEGIN PERIOD 307
 TRANSIENT
END PERIOD
BEGIN PERIOD 308
 TRANSIENT
END PERIOD
BEGIN PERIOD 309
 TRANSIENT
END PERIOD
BEGIN PERIOD 310
 TRANSIENT
END PERIOD
BEGIN PERIOD 311
 TRANSIENT
END PERIOD
BEGIN PERIOD 312
 TRANSIENT
END PERIOD
BEGIN PERIOD 313
 TRANSIENT
END PERIOD
BEGIN PERIOD 314
 TRANSIENT
END PERIOD
BEGIN PERIOD 315
 TRANSIENT
END PERIOD
BEGIN PERIOD 316
 TRANSIENT
END PERIOD
BEGIN PERIOD 317
 TRANSIENT
END PERIOD
BEGIN PERIOD 318
 TRANSIENT
END PERIOD
BEGIN PERIOD 319
 TRANSIENT
END PERIOD
BEGIN PERIOD 320
 TRANSIENT
END PERIOD
BEGIN PERIOD 321
 TRANSIENT
END PERIOD
BEGIN PERIOD 322
 TRANSIENT
END PERIOD
BEGIN PERIOD 323
 TRANSIENT
END PERIOD
BEGIN PERIOD 324
 TRANSIENT
END PERIOD
BEGIN PERIOD 325
 TRANSIENT
END PERIOD
BEGIN PERIOD 326
 TRANSIENT
END PERIOD
BEGIN PERIOD 327
 TRANSIENT
END PERIOD
BEGIN PERIOD 328
 TRANSIENT
END PERIOD
BEGIN PERIOD 329
 TRANSIENT
END PERIOD
BEGIN PERIOD 330
 TRANSIENT
END PERIOD
BEGIN PERIOD 331
 TRANSIENT
END PERIOD
BEGIN PERIOD 332
 TRANSIENT
END PERIOD
BEGIN PERIOD 333
 TRANSIENT
END PERIOD
BEGIN PERIOD 334
 TRANSIENT
END PERIOD
BEGIN PERIOD 335
 TRANSIENT
END PERIOD
BEGIN PERIOD 336
 TRANSIENT
END PERIOD
BEGIN PERIOD 337
 TRANSIENT
END PERIOD
BEGIN PERIOD 338
 TRANSIENT
END PERIOD
BEGIN PERIOD 339
 TRANSIENT
END PERIOD
BEGIN PERIOD 340
 TRANSIENT
END PERIOD
BEGIN PERIOD 341
 TRANSIENT
END PERIOD
BEGIN PERIOD 342
 TRANSIENT
END PERIOD
BEGIN PERIOD 343
 TRANSIENT
END PERIOD
BEGIN PERIOD 344
 TRANSIENT
END PERIOD
BEGIN PERIOD 345
 TRANSIENT
END PERIOD
BEGIN PERIOD 346
 TRANSIENT
END PERIOD
BEGIN PERIOD 347
 TRANSIENT
END PERIOD
BEGIN PERIOD 348
 TRANSIENT
END PERIOD
BEGIN PERIOD 349
 TRANSIENT
END PERIOD
BEGIN PERIOD 350
 TRANSIENT
END PERIOD
BEGIN PERIOD 351
 TRANSIENT
END PERIOD
BEGIN PERIOD 352
 TRANSIENT
END PERIOD
BEGIN PERIOD 353
 TRANSIENT
END PERIOD
BEGIN PERIOD 354
 TRANSIENT
END PERIOD
BEGIN PERIOD 355
 TRANSIENT
END PERIOD
BEGIN PERIOD 356
 TRANSIENT
END PERIOD
BEGIN PERIOD 357
 TRANSIENT
END PERIOD
BEGIN PERIOD 358
 TRANSIENT
END PERIOD
BEGIN PERIOD 359
 TRANSIENT
END PERIOD
BEGIN PERIOD 360
 TRANSIENT
END PERIOD
BEGIN PERIOD 361
 TRANSIENT
END PERIOD
BEGIN PERIOD 362
 TRANSIENT
END PERIOD
BEGIN PERIOD 363
 TRANSIENT
END PERIOD
BEGIN PERIOD 364
 TRANSIENT
END PERIOD
BEGIN PERIOD 365
 TRANSIENT
END PERIOD
